    23
        -45.35186718  Gyration_radius:  2.40773495925 Dipole_moment: 2.486
 S          -0.93585060010395    1.61652024153483   -0.64304320294677
O          -1.54524491197007    0.57023042143916    0.10816506732531
O           0.28867052640981    1.30151809184857   -1.32267310847321
O          -0.76600491142881    2.86606911607274    0.21698894430887
O          -1.95973389507486    2.09702805841771   -1.73153784517504
H          -1.48614682383309    2.65133791284659   -2.34918732659031
H          -0.60452796727236    2.52483435779710    1.19619999252578
O           1.60374490810436    0.66210610824659    1.02042910189947
H           1.38142665224759    0.93302988997945    0.12060828802346
H           1.68964912617209   -0.31693519368260    0.98571352692108
O           1.62340721583198   -2.00811567142142    0.75923960564880
H           1.78394807176977   -2.57266523199482    1.51596622397274
H           0.68580522140163   -2.17834418093772    0.46530231599760
O           1.00051591145745   -1.29427219262297   -2.18138587074073
H           1.61801571373276   -1.55702746722478   -1.49152528174318
H           0.79818277502152   -0.36495942404711   -2.01271450397103
O          -0.35048736388788    1.69819673795677    2.37345570269952
H           0.50101893446263    1.29198538697994    2.04352764826025
H          -1.02048765645967    1.01313152467102    2.27112386408421
N          -0.86324721286086   -2.28749977029289   -0.16713186435955
H          -0.58238504240632   -2.26826760057261   -1.14509187724365
H          -1.28243435437885   -1.38206556890255    0.02552848088965
H          -1.57783431693427   -2.99583555609009   -0.05795787131510
