    23
        -45.35999569  Gyration_radius:  2.40482961942 Dipole_moment: 6.419
 S          -1.14330890829190   -1.48923760261545    1.48067408017984
O          -2.06141714039300   -2.47895617734088    1.89621429064040
O          -0.83683656500565   -1.45375371902726    0.05924480681687
O           0.21324219305044   -1.68442499952617    2.22305758921759
O          -1.62778515150763   -0.10068103079339    1.90609193632317
H          -0.90347355626348    0.60444580581815    1.69697141754238
H           0.92499567420128   -1.19510611206838    1.74050495381343
O           1.39044714888441   -1.48497752951774   -1.41917551698738
H           1.06781465400570   -0.86392752882976   -2.08145386347958
H           0.58362445743223   -1.78319913200874   -0.95989347986966
O          -1.06312858826696   -0.04759756432860   -2.21759121124593
H          -1.07776843465085   -0.52045214947226   -1.36272342237830
H          -1.82370003462868   -0.36672118547422   -2.70550558984207
O           2.11111496653268   -0.44035583971223    0.86505207289617
H           2.97008584005623   -0.76916745967243    1.13646217245588
H           1.94327030350868   -0.79569209906427   -0.05194151849449
O           0.20696818835008    1.52656004763931    1.34200368324633
H           1.00701367916530    1.00293376501283    1.19438988255069
H          -0.01725062113751    1.95131735114353    0.46400463499359
N          -0.38337750173331    2.53087180425018   -1.05131230893187
H          -0.63674577367062    1.70271237090531   -1.58810668557906
H           0.34882021422447    3.01815441382059   -1.55172607843951
H          -1.19260506380109    3.13725457079823   -1.01524183541695
