    23
        -45.35999585  Gyration_radius:  2.40480862102 Dipole_moment: 6.407
 S           0.18177781753178    1.45779861749046    1.88495799193491
O           0.92906693843718    1.22771274766501    0.65858808027578
O           0.53449141979524    2.60904077467684    2.62344560343226
O           0.37271148539651    0.18677956040972    2.76663561481031
O          -1.31101931627468    1.47967196515348    1.54545749513349
H          -1.58333270243827    0.58921570884357    1.10022370513267
H           0.40789031570092   -0.61301079976462    2.18529885831437
O           0.81293858315046    1.14481866866451   -2.02368442820096
H           0.78315569108807    1.25442184415344   -1.05330693957066
H           1.09393063308411    1.99161692999880   -2.37353858829686
O          -1.85241580351991   -0.72692526014390    0.46324061222078
H          -1.11882212280413   -1.32383066909864    0.66715142464313
H          -1.83986765309413   -0.59415327575026   -0.52861622586719
O           2.31297250136891   -0.80672737398550   -0.38694109789353
H           2.10274974548902    0.02743424485642    0.07208793052406
H           2.03154676775651   -0.65275617706974   -1.29552690644254
O           0.54954188251840   -1.92491560893540    1.18430001111480
H           0.93629653334403   -2.65734756820773    1.66759431265440
H           1.23951038699428   -1.61155926189206    0.53550959578869
N          -1.68820432482738   -0.33685814977940   -2.16478567319599
H          -1.64056943977686   -1.15270864854398   -2.76148171440599
H          -0.81580623552954    0.18005310141664   -2.26445521686041
H          -2.43854310336170    0.25222860986269   -2.50215444522494
