    23
        -45.35638886  Gyration_radius:  2.38929617816 Dipole_moment: 4.668
 S          -0.38333034974938    0.79356701948700    1.98188488611846
O          -1.32299019037773    1.10616484201565    0.91230404720929
O           0.98197544398826    1.08342617378742    1.65350824453768
O          -0.59565908811892   -0.57972222741326    2.47272195437511
O          -0.78164120119957    1.71918134992794    3.20699932639489
H          -1.65003916424021    1.39871792256640    3.43052442351963
H          -0.55092170410226   -1.58028529873971    1.51758694984552
O           0.62982295495893   -0.16462707268180   -2.28111438501893
H           0.86103844581425    0.01700523881432   -3.19258591507924
H           0.71535048242315    0.72239726364914   -1.77591659610035
O          -1.68920772078289   -0.70349843025076   -0.92586994404180
H          -0.97535481859216   -0.51079755981859   -1.56230239645774
H          -1.68123848254251    0.05189271217254   -0.28484214425096
O          -0.55219901733795   -2.24772584986832    0.67091233606714
H           0.38113022518460   -2.23828756783554    0.28512997975985
H          -1.13295119284611   -1.70952452279785   -0.03707181965950
O           1.65466449373457   -2.04257735223263   -0.65682014229998
H           1.91447684902053   -2.78610191047836   -1.20337182923452
H           1.38183738307698   -1.31893424392270   -1.26277807923580
N           0.72209191149625    2.04797786621680   -0.93739332272433
H           1.32750749063458    2.82814730427738   -1.16140013203450
H           0.97139754141578    1.71654629841422    0.00012694557923
H          -0.22576028183907    2.39705803471765   -0.85023236723642
