    23
        -45.36663504  Gyration_radius:  2.32977269074 Dipole_moment: 6.687
 S          -0.01440687527518    1.17644457914496    1.64570192152599
O           0.55423147768053    1.76670804445068    0.44459322718885
O           0.41577724202912   -0.18237049523971    1.88405392934511
O          -1.47504325086693    1.28776426081378    1.63913283171454
O           0.50480100723151    2.04616658218674    2.85690122953614
H           0.44575401261657    2.93492250065252    2.51965741494456
H          -1.96847434950527    0.43682059921828    0.49574829795681
O           1.04585419906531   -1.43511725241100   -1.84593434963430
H           1.63952095563162   -2.12055714105964   -2.15541280687365
H           0.60204890747723   -1.77533791575796   -1.04579624604624
O          -0.36290162095410    0.95564717692061   -1.91781534833466
H           0.25123404454703    0.24325962613395   -2.15262394771782
H           0.05126957752946    1.41688729695776   -1.15546752094315
O          -0.34069451418019   -2.13391151672089    0.41001513837192
H          -0.24247201697759   -2.93468421770839    0.92788615733949
H           0.00994922268539   -1.39922036404058    0.99268916916202
O           2.79991022345944    0.34063394130996   -0.35143067962636
H           2.31608611370372   -0.24701031148985   -0.94341096548010
H           2.12780284235472    0.91277217830329    0.04356075789422
N          -2.10093125681798   -0.18953666582546   -0.37020728895075
H          -1.69107730408784   -1.11032794434425   -0.14651123323237
H          -1.49220354529469    0.27129166054435   -1.13649514196800
H          -3.07603509206273   -0.26124461204341   -0.63883453617082
