    23
        -45.36663508  Gyration_radius:  2.32965227225 Dipole_moment: 6.687
 S           0.21908147939597    1.95538914903718    0.46964318790342
O          -0.13406783378264    1.66811512304168   -0.91146657997600
O           1.25117558976787    1.09204578703369    0.99656675236181
O          -0.97219582963509    1.95620898020555    1.32210188487693
O           0.79317147128143    3.42618793275363    0.48467007645893
H           0.21032532361288    3.88701032330075   -0.11128141379673
H          -1.50257673028398    0.54407659156815    1.32579926010506
O           0.60731239849638   -2.22534666334180   -1.11356270726851
H           0.76911218806198   -1.99690139500463   -0.17840518394597
H           1.22829576514811   -2.91573005613426   -1.34969830505395
O          -1.56092988020928   -0.51907328933459   -1.41932683019759
H          -0.87837642137815   -1.18099046964534   -1.60846812389726
H          -1.09456706062835    0.34585806891372   -1.42344097413148
O           0.84448373546390   -1.38807222374848    1.48299123149273
H           1.50152974119438   -1.66218561227907    2.12505636725953
H           1.06162320521575   -0.43295065082675    1.27601021884965
O           1.87905624568773    0.18815294648115   -2.12344305864196
H           1.48941883096297   -0.66754375844368   -1.90943377003125
H           1.28420486090526    0.84288615885132   -1.73293045077926
N          -1.72389861183650   -0.49807269304825    1.16906275503087
H          -1.79378936128428   -0.60379757603907    0.09478052090651
H          -2.57468728124440   -0.77911497694815    1.64370752865374
H          -0.90370180492761   -1.03615169637437    1.49106761381962
