    23
        -45.35971299  Gyration_radius:  2.54441767788 Dipole_moment: 5.205
 S          -1.75513866718891   -1.47425298317700   -0.42945240279076
O          -0.55107856248291   -2.07477023440024    0.11721139613297
O          -1.50977098638498   -0.46341393875584   -1.42523443384155
O          -2.62455675705315   -0.98518283106855    0.65876145373458
O          -2.56223647692851   -2.64278050993556   -1.12785137383438
H          -2.50591272053334   -3.34485780736791   -0.48649909374391
H          -1.96824416390919    0.05115019694830    1.39534790223455
O           3.34685524433175   -0.08223146398205   -0.31136813063738
H           2.60133992011683   -0.28803644327933    0.28561869879614
H           4.03490882308696    0.30384412162118    0.23220153241642
O           0.98858390336382   -0.20003341095712    1.08809384834822
H           0.74935366152995    0.50272919862121    0.43925667970827
H           0.54359015346696   -1.01045084911371    0.74168735608578
O           1.96896653237733    1.49472006496915   -2.06904928118639
H           1.70076917252394    0.92781557686325   -2.79468426915578
H           2.55547496020278    0.94972673044792   -1.50609006914606
O          -0.20130487152648    1.62452020941037   -0.47991326341013
H           0.52958348216902    1.82619642779867   -1.10042926926835
H          -0.74162778452120    0.94678870047212   -0.94187421762926
N          -1.32326908543989    0.82363772348636    1.86166017857464
H          -0.37538248483191    0.37721092848749    1.94808447014591
H          -1.69481079560332    1.16740609009870    2.74035822425038
H          -1.20609248676666    1.57026450281494    1.16416405421786
