    23
        -45.35944539  Gyration_radius:  2.28504488586 Dipole_moment: 4.052
 S          -0.17630368408662    1.18676020511346    1.15617120611647
O           0.39198987970169    1.57436687383090    2.41833069567066
O          -0.78443137244985   -0.14410870682408    1.18936924700151
O           0.99971177358333    1.10416072511003    0.09339961137886
O          -1.08871355109413    2.14939708890116    0.54358519796764
H          -1.21419857515939    1.70681613869751   -0.79098490835305
H           1.73277968977407    0.65505372694733    0.54842687087890
O           0.43083827336626   -0.41041667555140   -2.39059733338900
H           0.71533150768258   -0.91504054392657   -1.56752425274616
H           0.04022725067861   -1.05546179829346   -2.98406060067110
O          -2.76045310139359   -0.57101839106565   -0.42258600264231
H          -2.03871967290165   -0.51979770944059    0.26240282354548
H          -3.55324227083943   -0.24732633661323    0.00937992281324
O          -1.42356828524424    1.17358757996342   -1.69371664318278
H          -0.57915258775188    0.63575804491117   -1.97699790583993
H          -2.07874633279564    0.46459311325927   -1.34863955718071
O           2.47862012788297    0.02940215806318    2.02568235114798
H           3.27202402862090    0.45174723242033    2.36272650349055
H           1.72503295575740    0.51425606752182    2.42716917912576
N           0.96797723024428   -1.84289788128473   -0.22679480006186
H           1.88611334501459   -1.73352262503626    0.18709420033371
H           0.74603616462109   -2.83105144340722   -0.22193157506175
H           0.31084719679827   -1.37525683330539    0.40009577967294
