    23
        -45.35916354  Gyration_radius:  2.42100566335 Dipole_moment: 3.988
 S          -0.11602235404313   -1.53968385887416    0.79415724083242
O           0.16604458351657   -0.35422857231082    1.56673620726355
O           0.82396317593673   -2.60178767866288    0.86667662939596
O          -0.28774696888863   -1.08969210755930   -0.68903124861134
O          -1.51236757514216   -2.07822679452394    1.15572031446426
H          -2.15826581234124   -1.30749032602238    1.16746264606403
H          -0.16217226077532   -0.07687513172563   -0.70123103081527
O          -2.49518736632194    0.73528869562426   -1.46767977021616
H          -1.73921009900349    1.30561863309862   -1.26009717282685
H          -2.12288743174108   -0.05211818265832   -1.87556062682274
O           0.00428525455910    1.42209956299169   -0.47340855511657
H           0.00475003799449    1.29711347158632    0.48724687301414
H           0.97836316901275    1.54086752764361   -0.73025022526925
O          -3.14841965680736   -0.10168775535234    0.97377368370572
H          -2.99250251674708    0.27351691331049    0.07250811677399
H          -4.06654276121808   -0.37890956625795    1.00365153040993
O           2.80496743781873   -0.64733948369454    0.93695299687709
H           2.02943195311545   -0.36142757627497    1.43975714493867
H           2.64458943775007   -1.58544981025920    0.78635444929969
N           2.56775989683151    1.45378547573964   -1.00200771099937
H           3.10851013715385    2.26912226144428   -0.74283760629546
H           2.83920133218748    1.18478637706246   -1.93903785619277
H           2.82945839716086    0.69271792568726   -0.36985604985787
