    23
        -45.36358000  Gyration_radius:  2.31677083106 Dipole_moment: 5.814
 S          -0.49221867346471    0.79603945928500   -1.09946217014509
O           0.63131218724667    1.06290285238369   -1.93645666452592
O          -0.29427616663506    1.08997735220846    0.30317407301039
O          -0.91133007271630   -0.69462393709578   -1.21424498185128
O          -1.74233738487216    1.50876334820516   -1.59582912558506
H          -2.44050863117326    1.30182760149532   -0.85037257066785
H          -0.13481869285097   -1.30944390374200   -0.98335917244181
O           2.78404902625627   -0.20467701939554   -0.82608952413197
H           2.79791193294292    0.22154656441781    0.06127738436523
H           2.23867293467661    0.37577218386603   -1.38153427789088
O           1.11091397683678   -2.12473734089564   -0.60672697725371
H           1.30868321965702   -2.79204963711916   -1.26674265963998
H           1.85400290040486   -1.43224341701079   -0.67195432088814
O           0.19365590156751   -1.09977733675931    1.92363324864251
H           0.50359332528632   -1.75250941384782    1.28693887088827
H          -0.09180846625801   -0.33655593743319    1.39969095946385
O           2.20605172182969    0.89039194541187    1.55206394108621
H           1.41872979322564    1.31978760906593    1.18970681938274
H           1.86018738384204    0.15431114674207    2.07700808761014
N          -3.13647707435895    0.84376008322687    0.42744440200043
H          -3.92312087390966    1.37432005017261    0.77795443093521
H          -2.35025461839245    0.94110288890475    1.06128489494244
H          -3.39061363919362   -0.13388512222003    0.37259532270724
