    23
        -45.36284732  Gyration_radius:  2.43339827392 Dipole_moment: 4.066
 S          -1.06247243609150    0.08217415028397   -0.69062945366157
O          -0.55940364492848   -0.86293752781159   -1.64853712953294
O          -0.84572434308831    1.46884830467395   -0.98251051808936
O          -0.42692436307568   -0.25930318589001    0.67502038056677
O          -2.56695053139473   -0.12904249580422   -0.46671678445168
H          -2.75874058255165   -1.08810953591551   -0.20041388053931
H          -0.19012586957493    0.65629277996865    1.15355833516199
O          -2.84963366303892   -2.53909165261529    0.34659775089679
H          -1.93736853941906   -2.89101194665675    0.18491027081480
H          -2.98857445382260   -2.54626491608609    1.29630970976603
O          -0.28201268519375   -2.99324645969774   -0.07085404432281
H           0.17150550256867   -2.52479624429010    0.63563730235980
H          -0.28557483487908   -2.37069730439022   -0.82311184365256
O           1.69169294020087    0.83420016032694   -1.75482431117591
H           1.42272271595589   -0.03937424194414   -2.05374756179538
H           0.86079184079758    1.32322327919689   -1.67432307600406
O           0.14587653720660    1.99751969634399    1.51498226838497
H          -0.27493253337872    2.41150300718662    0.74929378545911
H           1.14028932412966    2.01771177276101    1.32152353492158
N           2.66355004137171    1.90101218877686    0.75553618840522
H           2.50980612915578    1.48102820397110   -0.16231573809584
H           3.27715639703895    1.29019116198752    1.27925989529602
H           3.14504704203212    2.78017081563814    0.61535492930991
