    23
        -45.36375032  Gyration_radius:  2.28825916524 Dipole_moment: 3.532
 S           0.99937591292232    1.09710523142545    0.03730142070030
O           1.44853339715720   -0.18864773063982   -0.44696494829807
O          -0.37971218458814    1.09617106153185    0.45859352118552
O           1.23301638199397    2.17266811744869   -1.00837026941124
O           1.89173824889774    1.54126394816144    1.20692096787570
H           1.49634915781162    1.10835944783233    2.03502037836566
H           0.39519405292463    2.15553847175555   -1.63856010211971
O           0.56351621897262    0.25356587253098    2.95895923579205
H           0.64048614341958   -0.65247662526272    2.58267652281165
H          -0.27836644800309    0.59421555716525    2.63745981122551
O          -0.38382267892083   -0.69138978155208   -2.45174332438539
H           0.44984071707613   -0.67677442162388   -1.96038975768840
H          -1.03012472813190   -1.08039932842496   -1.81804418253749
O          -0.87542188428319    1.84890266094875   -2.30205499154641
H          -0.74584936268372    0.87809781038539   -2.53310927828912
H          -1.50178387035436    1.86143631990090   -1.57168798450820
O           0.83609286340820   -1.94650806073130    1.44961531633369
H           1.05891844413638   -1.39637675933670    0.66941631166938
H           1.58117545497095   -2.53576371917589    1.58439397931967
N          -1.80503767098843   -1.37323081956838   -0.24562413373630
H          -1.50409664516304   -0.48262696942864    0.14299552504392
H          -1.29983833040507   -2.09333267378507    0.25753533205961
H          -2.79018318016499   -1.48979758955652   -0.04433933985998
