    23
        -45.37357851  Gyration_radius:  2.2889653367 Dipole_moment: 4.538
 S           0.28464503558229    1.40707462601414   -1.20446799009308
O           0.98254504942392    0.15108347432738   -0.95141401966088
O           0.95244561132540    2.57564415705612   -0.71955320664822
O          -1.12037614133393    1.29683811849618   -0.80233583222259
O           0.24350827942450    1.52499283796947   -2.80182474173992
H           0.43037317210150    2.44332482058203   -2.97278703436070
H          -1.28144206898903    0.97404133869296    0.97983577374544
O          -1.09888518097382    0.56404492114064    1.84081960475702
H          -0.15642967229984    0.74272709278124    2.00778907843805
H          -1.26701025341705   -1.10443726340941    1.61510496562371
O          -1.14427042150701   -2.00089185569444    1.20991779137058
H          -0.17170570036340   -2.14892563451893    1.24698473550869
H          -1.30979449253345   -1.67259907528297   -0.19283825413859
O           1.50339531064582   -1.80624161340867    0.93761609053824
H           1.45600073485398   -1.21756291408456    0.16787361720369
H           1.85058265844879   -1.25414267365554    1.64479373702687
O           1.59406010361586    1.07294704489538    1.56089543119273
H           1.51255583700375    0.85940579753524    0.61778969812864
H           1.74748114696794    2.02075538894351    1.57959858012734
N          -1.28747963430432   -1.24594752851516   -1.22632141155072
H          -1.95740877731947   -1.67236338327448   -1.85670830072937
H          -0.32691519427536   -1.30987170394105   -1.57179950326757
H          -1.43587537206645   -0.19989598263456   -1.10896882920721
