    23
        -45.36765301  Gyration_radius:  2.30415810939 Dipole_moment: 4.086
 S          -0.71716922792138   -1.06847620505989    0.48423897439453
O          -1.68033063547923   -0.09458467818919   -0.01577999241452
O           0.29205168743136   -0.45509483808915    1.32792757432428
O          -0.10457243018871   -1.79123020025166   -0.64180209202650
O          -1.47389794264698   -2.11389826609667    1.35180073972416
H          -2.13779551629693   -2.46674568794664    0.72230468980962
H           0.84245226555961   -0.96429194973452   -1.39248401545889
O           2.73132680203233    0.01258515078959    0.46996261609956
H           1.90451896036581   -0.27509959724064    0.92445518541907
H           2.91616402175894    0.90117028634844    0.78138871970320
O          -0.14096231361239    1.63576795056932   -1.26067941312892
H           0.18139914105149    2.11682310902389   -0.45745522974145
H          -0.86877177706934    1.07123671542162   -0.90797309513703
O          -2.80668336171421   -2.38750937659783   -0.89505126802070
H          -1.99328467996472   -2.61923503241966   -1.35754180527387
H          -2.79442350211758   -1.42039439807951   -0.82916712666669
O           1.46210339688692   -0.19581558503610   -1.73475242748512
H           2.14208842443390   -0.10700234900292   -0.98163784559583
H           0.81255719820992    0.67036165304614   -1.64137987820289
N           0.41442715331537    2.41789155574249    1.23999679914345
H           1.15240755669533    2.81977144749097    1.80568628105800
H           0.31369344061622    1.43537838290113    1.50028623748534
H          -0.44729865112135    2.87839190269912    1.50765637185958
