    23
        -45.37122824  Gyration_radius:  2.35348520126 Dipole_moment: 3.972
 S          -0.41074473336953    1.01034246623184    0.73946359624169
O           0.73870365912394    1.65073672930557    1.31909696930962
O          -0.52839870492510   -0.40676191095178    1.13566726761132
O          -0.21547765007521    0.97274723773555   -0.82968671269903
O          -1.67711825971430    1.70238892594416    0.91905788304543
H          -2.68271244390964    0.63840531941538    0.46543591656173
H           0.68918813433180    0.54886784193999   -1.04982136891662
O          -2.06681297619841   -0.31792458337698   -2.33327758783906
H          -1.39980333766637    0.30020989081280   -1.97605249964456
H          -1.57690517218274   -0.98977213874012   -2.81175494260464
O           1.68613388504506   -1.84940896197267    0.70845256649894
H           2.37596079553258   -1.35857442393138    1.17196321200148
H           0.84654221935010   -1.42362695497829    0.97205630249015
O           3.14266360797658    0.61393893134134    1.06579125877382
H           3.76484510235465    1.17277949680017    1.53271557670253
H           2.25680024150895    1.01586553105613    1.21847420424400
O           1.99329490203766   -0.18665989654119   -1.31173718390296
H           2.65971336494728    0.32137009495754   -0.82493270316029
H           1.88367325584157   -0.99597876395479   -0.75124443312223
N          -2.89121334435331   -0.38924139990980    0.21222730256716
H          -3.75370816242614   -0.75131522459544    0.60321266180234
H          -2.00791696585050   -0.78288351036422    0.64849527512264
H          -2.82670739737562   -0.49550469621273   -0.82360259107445
