    23
        -45.37383454  Gyration_radius:  2.27503658673 Dipole_moment: 5.654
 S          -1.10877040566956   -0.91037837070343   -0.33191883544051
O          -0.97839678362819    0.26121115470100    0.53845824373322
O          -1.34115078590443   -2.13378999946515    0.38597523854109
O           0.26803495899652   -1.02746340466758   -1.09733054969553
O          -2.07446772511195   -0.62665079968372   -1.39654466027553
H          -1.87476398787758    0.76181108574746   -1.56812698248708
H           0.99536574083831   -1.23893110767243   -0.41728209218496
O           2.03289458163294   -1.29455669584974    0.72035592717287
H           1.51672948560602   -1.71333407449619    1.44759542805337
H           2.07493128242208   -0.34830651600331    0.94135194509374
O           1.02138220963199    1.53971454433020   -1.66372218006462
H           1.35563867779837    1.69500992971993   -0.76488586411100
H           0.94846461405262    0.57100647467137   -1.73050804221317
O           0.27427534232384   -2.29008847083134    2.44732825666860
H          -0.42661459755161   -2.20795507739056    1.75911811062112
H           0.29872503514243   -3.22016211759848    2.67996588844116
O           1.30541735280888    1.33553866293602    1.07767633369426
H           0.41066895200897    0.92142598153873    0.94240395412370
H           1.29560508178026    1.70355868498997    1.96210272123438
N          -1.58916149101252    1.84062294157948   -1.51965912827996
H          -1.79131167658987    2.11226744380124   -0.55930554757859
H          -2.08383198248983    2.41391786955160   -2.19523531970899
H          -0.52966388920099    1.85553186077477   -1.65781283533539
