    23
        -45.38252890  Gyration_radius:  2.27567469311 Dipole_moment: 2.961
 S          -0.24370646838324   -1.37579638326799    1.30094296070276
O          -1.12612580624584   -1.42956358480945    0.13900856390917
O          -0.09775325085729   -0.03889790175250    1.83274983541578
O           1.02878450747060   -2.02994965851855    1.02702824823163
O          -0.94757626372705   -2.22877706482200    2.43491879314336
H          -0.90848604232293   -3.11756076473536    2.09538599699468
H           0.91044451277825    1.20784194100759    1.14172528029004
O           1.38639893377110    1.72689723803510    0.46289937490115
H           0.68919159206091    2.05460197831637   -0.13304685278372
H           2.01001432289112    0.48268506299897   -0.30979085003597
O          -2.30231632331133    0.88937956670331    0.62904785830903
H          -2.16652347291219   -0.02714556346166    0.32276652773138
H          -1.71988073120541    0.93023931888383    1.40150620887267
O          -0.81034106041524    2.07555723147782   -1.17427927934835
H          -1.25349677399708    2.83427923291235   -1.55543812127671
H          -1.44102770742701    1.68903825059412   -0.50434221942899
O          -0.15236426068933   -0.42247534972890   -2.14652417516468
H          -0.61628875593901   -0.91581906524545   -1.43929342206308
H          -0.42080317888098    0.50497582925957   -2.01802964528862
N           2.07859438612309   -0.47124416325278   -0.78055298639188
H           1.79932011263475   -1.18363995102103   -0.04744134845341
H           2.99780758231843   -0.65842070487119   -1.16411482312431
H           1.30613412630591   -0.49620550469363   -1.51512592513812
