    23
        -45.38252912  Gyration_radius:  2.27571552229 Dipole_moment: 2.961
 S           1.42706868236451    1.23081639010024   -0.30470333818219
O           0.46799821123079    1.63075654422598    0.70104179882926
O           0.79655949648578    0.67308816250818   -1.49762065275075
O           2.46420499552888    0.34455260587914    0.20635571902271
O           2.16230194242846    2.55556780064384   -0.76682723107457
H           2.86485493685316    2.23270668740777   -1.32269426174388
H          -0.36387659855554    0.53944680360490    1.77952426131712
O          -0.78814755589067   -0.28087449456028    2.10185479815266
H          -1.52331087334001   -0.43995110363886    1.48307008530974
H           0.35502420117336   -1.27644366310961    1.61627529278089
O          -1.58687228237148    1.71457329014271   -1.01566552770158
H          -1.17718168283304    2.09058020509065   -0.22312604009332
H          -0.81209033969750    1.37155953627229   -1.49985553562230
O          -0.25543058734634   -1.78089462529371   -1.25498405606205
H          -1.14053613432146   -1.52441389196566   -0.93948748301098
H           0.15858463091153   -0.94167475451816   -1.54308856734737
O          -2.44889360819889   -0.58205096155614   -0.08402914246069
H          -2.20788780854500    0.30989582795022   -0.46124410774280
H          -3.39421282011474   -0.67898588607079   -0.20391099893792
N           1.08906535720362   -1.72810744463147    0.98892405883219
H           0.59183102964828   -1.97254635347637    0.07796264385245
H           1.54235651421174   -2.52527030591127    1.42041055850242
H           1.77859030292446   -0.96233035889384    0.74181773605687
