    23
        -45.35542099  Gyration_radius:  2.4332122191 Dipole_moment: 8.610
 S          -1.84969926489889    0.61428504936461   -1.29286517317601
O          -1.50609034020735   -0.76780926380313   -0.99826600326426
O          -2.82252058049905    0.79912224110256   -2.30618039465305
O          -0.50623661735005    1.34164834398019   -1.63866895295558
O          -2.26577580385231    1.32039174528405   -0.00550178710104
H          -1.39188251929730    1.55422995408068    0.55410326555142
H           0.08449226002982    0.64106815871344   -2.06750228185072
O           2.53523983795101   -1.01288966790445   -0.41026237647690
H           3.28617173184694   -0.41835197116417   -0.43464924758339
H           2.07012524020344   -0.85099912272545    0.43337415302904
O          -1.04854447147341   -1.79262360775058    1.36367271038690
H          -1.05646819686077   -2.73661113457860    1.19415425398433
H          -1.30858748306054   -1.37101304204776    0.51121664130823
O           1.19373706316427   -0.55871745059444    1.92685154231599
H           1.52023050906254   -0.91145147402139    2.75633071558974
H           0.34537144182395   -1.04263093634627    1.73836152990056
O           0.76622281500584   -0.70830212131216   -2.44504206638896
H          -0.01020940852242   -1.19617089623931   -2.13336636680453
H           1.46974969053876   -0.88235007981385   -1.78435711952865
N          -0.10605427463216    1.92732110626654    1.17895634603930
H          -0.20630076641086    2.60523298935013    1.92170464530986
H           0.41233951438622    2.33541049899364    0.41196219919191
H           0.39468963305250    1.11121068116668    1.52597376717317
