    23
        -45.36837549  Gyration_radius:  2.38472359783 Dipole_moment: 4.495
 S           1.22546160423675   -0.12628095412162    1.62018606361458
O           1.93955101799298    0.87788005697927    0.86012336148923
O           0.86729076763043   -1.31471179683220    0.87595136733488
O           0.06379482430138    0.43783208851045    2.31354283754396
O           2.22979173602939   -0.60584414188992    2.75674182800194
H           2.71058652032355    0.18502170214068    2.98262266536291
H          -1.13116826273120   -0.37947402471548    1.86193017045611
O           0.94201400583049    0.77887887094058   -2.97868827324613
H           0.74989601282688    1.29028821255533   -2.17497251972784
H           0.29738426872991    1.04789710067846   -3.63564856836117
O           0.06871167513938    1.92270923640237   -0.59164611080916
H          -0.01704595875964    2.82275005862219   -0.27290577866479
H           0.79477159735918    1.51801738849854   -0.05034434850771
O          -1.92216368191747    0.07221925097616   -0.99119082639382
H          -1.30224909987150   -0.57881944313649   -1.42286959003488
H          -1.36527055943218    0.85985809195959   -0.85417040466021
O           0.04158268944354   -1.49144880348940   -1.72762532100949
H           0.55367691220411   -0.85940539889705   -2.26483720938371
H           0.48946180334713   -1.52701040562556   -0.86481480774263
N          -1.71882464483427   -1.08458559758327    1.30415916214212
H          -1.96624396851346   -0.59586487471800    0.36058539561864
H          -2.52441062965916   -1.43934284185526    1.80696289753542
H          -1.02659862974466   -1.81056380536363    1.08690801942472
