    23
        -45.37625484  Gyration_radius:  2.31039354676 Dipole_moment: 4.406
 S           0.17125247389864    0.33910226848566    1.86900228606019
O           1.06038017075575    0.98570001311616    0.92679954854713
O           0.01206039583849   -1.08290230136215    1.62084742539495
O          -1.12407945828769    1.00639416861322    1.96657336816471
O           0.85802185356297    0.47709339800514    3.28799662742903
H           0.26827601939103   -0.00976326246408    3.85489390612950
H          -1.76932011946265    0.97097612598268    0.56313613872103
O           0.17019365178262    1.68373529429641   -1.53369705167310
H           0.45662891959701    0.84888742811878   -1.99060040907298
H           0.64513589222048    1.66703969312203   -0.68236512260288
O           2.67755796085755   -0.73350971373922   -0.32197627508728
H           3.49576107839353   -0.24536328898382   -0.42879564452488
H           2.10038829984329   -0.17581308588681    0.23769128664643
O          -1.21437398546604   -1.76126472971772   -0.55093645109735
H          -0.69906099372576   -1.55300014077314    0.27529760726486
H          -1.45369749347291   -2.68666529553578   -0.48282822219881
O           0.78841368891973   -0.77056171981784   -2.26863754081442
H           0.07908861848957   -1.25308953024797   -1.81881153672639
H           1.56987774674215   -0.88145836880348   -1.69147110658108
N          -2.01196012065652    0.83314094334353   -0.46536351081530
H          -1.99000273616099   -0.18456837267339   -0.64650260269076
H          -1.18220001725263    1.28302396982630   -1.01755504641666
H          -2.90834183622965    1.24286651740105   -0.70269768417179
