    23
        -45.37643979  Gyration_radius:  2.30474209272 Dipole_moment: 3.362
 S           1.06072253730645    0.27165390297762   -1.21848277104469
O           2.17225073956482    0.90775443571060   -0.55869900779802
O          -0.20140101500295    0.99461244216156   -1.03697393633306
O           0.89232973459077   -1.13558470496326   -0.89369733377842
O           1.38635751344551    0.34715388234100   -2.76907389897073
H           2.25648880278160    0.73086348869983   -2.75225348691426
H           0.65960866165715   -1.55898579310515    0.87530470664176
O          -0.52725052862938    2.66976185263106    1.02126292966029
H          -0.17089938083483    3.54145904173485    0.84341977093154
H          -0.41226221492570    2.15402511482950    0.19857786453166
O           0.21091384569945   -1.37872168395610    1.71980536803994
H           0.66460436101836   -0.56287385395788    2.05436630959416
H          -1.09867221405130   -0.89281986193202    1.08416873658500
O           1.37305365419494    0.95140504123282    2.02579217257254
H           0.67669986550536    1.62459380489906    1.93123447942904
H           1.84576302263133    0.95721586670458    1.17383703768363
O          -1.35302336875005   -2.41718846669756   -1.48729391369964
H          -1.18011492207459   -3.35488352200646   -1.38838873565475
H          -0.47803256063156   -1.97290573757982   -1.42330534565393
N          -1.81972204201576   -0.54602516636945    0.35259180543489
H          -2.00280543193413   -1.34129952118698   -0.29267940811271
H          -1.29547314122888    0.16500558602745   -0.22344346191765
H          -2.65913591842874   -0.15421613817311    0.76393013873225
