    23
        -45.36324338  Gyration_radius:  2.34749784927 Dipole_moment: 3.223
 S          -0.68424326059325    0.71063991507599   -1.31290504718988
O           0.39003188860404   -0.23979278608347   -1.47271665912414
O          -0.45440087121511    1.97471469086750   -1.94126984719835
O          -0.92890044642979    0.91942684300072    0.21209257755388
O          -2.00426077356255    0.11797239304280   -1.77076782125255
H          -2.20073222035042   -0.74665151327311   -1.22862360482616
H          -0.08756152004914    1.27893333439073    0.61753364482984
O           2.17688476311739    1.84512465551017   -1.40447930737662
H           2.17644206793349    0.90289483066401   -1.61098464047075
H           1.34301091385743    2.16682816702715   -1.79019518549158
O           0.09415837247950   -2.36705429142987    0.14425384568414
H           0.25913611496668   -1.94635181448095    1.01995133044224
H           0.39355407505184   -1.70857218482721   -0.50740423000170
O          -2.36979529751714   -2.01149900649868   -0.48505840233970
H          -1.43397339806499   -2.23059104570881   -0.16265513716540
H          -2.60943294037035   -2.70518482421489   -1.10387831872844
O           1.31566370181214    1.88753906008533    1.06753559977643
H           1.79151564463516    1.87951722760672    0.19167386112099
H           1.22057806426485    2.81253672442848    1.30637829224577
N           0.41271041494160   -0.84052210023668    2.37952526562294
H          -0.51087661081735   -0.42578108076157    2.41275012459922
H           1.06403050575710   -0.10438690118777    2.13163841892317
H           0.64646082155131   -1.16974031298452    3.30760524038378
