    23
        -45.37664209  Gyration_radius:  2.27376698324 Dipole_moment: 4.472
 S          -0.88860854155785   -0.46998646800755   -1.06627312417557
O           0.33565615312442    0.33248623033634   -1.18709358605438
O          -2.08353072927068    0.29853830830273   -1.28133471515965
O          -0.86474953889575   -1.28671924860535    0.12785526663000
O          -0.80719512119488   -1.50824713366426   -2.28411479367115
H          -1.46436867302592   -1.18876534844231   -2.89439078399299
H          -0.63400546830591   -0.90372188639462    2.11854920103486
O          -1.48850938421360    1.61280927776934    1.04345108276025
H          -0.94966932297505    2.29729264790659    0.60688138294472
H          -1.90796899613648    1.12376412449778    0.31961202254103
O          -0.01033179033220    2.96642357743047   -0.81950598111732
H          -0.66378045291131    3.28017532570814   -1.44753226343314
H           0.18399710067399    2.04341694958020   -1.07153820160369
O          -0.19508743818688   -0.15146010976449    2.53852155854214
H          -0.69162743465379    0.62004405306303    2.17499698353001
H           1.08808208551220   -0.16499229865652    1.68638859108134
O           1.36433408903234   -2.66628666754273   -0.13917648252790
H           1.44804164462786   -2.86207583962223   -1.07381972617265
H           0.45338897385378   -2.31688163432888   -0.02698272238184
N           1.81461813455598   -0.23154889333753    0.88742032731385
H           2.66843811918473    0.27826129912570    1.08461215651874
H           1.31416400576448    0.13326119482746    0.02906249283194
H           1.97871257513010   -1.23578744015775    0.67441132464544
