    23
        -45.37612447  Gyration_radius:  2.3360624004 Dipole_moment: 5.014
 S           0.27688040960671    1.98744097614778   -0.20703572065422
O           0.02877801773748    2.04450414375712   -1.62984520984553
O           1.31640394064099    1.04405177796657    0.16990232444811
O          -0.94770997620304    1.75790476465580    0.55646929053336
O           0.81449990852812    3.41667739141955    0.21846371602305
H           0.24869171111116    3.99624441944253   -0.28117421915245
H          -1.53530932698304    0.38818942753458    0.19546404798560
O          -0.64070179993153   -0.37395132816729   -2.49424292290170
H          -0.40747141043541    0.57399769059966   -2.39035655937903
H           0.18266982393748   -0.85326664744615   -2.25417023066318
O          -0.15837263048143   -2.25254674607273    1.21063808462738
H          -0.37531814794299   -2.93706072052094    1.84469776765464
H           0.31850892069428   -1.54066264241191    1.71633354877496
O           1.09652487502147   -0.28321739383411    2.40397243540200
H           1.12824308685343    0.32700472216893    1.62775005892499
H           2.00944341539393   -0.39650475989910    2.67585150431364
O           1.40603586643047   -1.35900734759548   -1.08746461299895
H           1.02079496524703   -1.90397658971826   -0.39140303504461
H           1.54646253711506   -0.48044272437834   -0.68901922965389
N          -1.80067557664346   -0.57182668762786   -0.18903943159457
H          -2.80350714018970   -0.71460474183374   -0.14808977566071
H          -1.29160044868267   -1.29710695665003    0.35402042154529
H          -1.43327101082376   -0.57184000753824   -1.21172226268175
