    23
        -45.37301776  Gyration_radius:  2.28419379477 Dipole_moment: 3.688
 S          -1.53418373327561    0.35439600232785   -0.78585358667586
O          -0.75294204066426    1.41822845470044   -0.13098261787269
O          -2.17243759627792   -0.49350473917517    0.18201285055354
O          -0.73291945833833   -0.34129782761551   -1.77826559903049
O          -2.67294050423895    1.09958376954039   -1.59093709157053
H          -2.18939038311142    1.48131390098647   -2.31625249895824
H           0.18654913383217   -1.44068957359502   -0.70556266114492
O           1.77873935781018    0.22205366252543   -2.62183885577968
H           0.84068687590658    0.05365104775830   -2.40852744258670
H           2.10624029342204   -0.59173312576932   -3.00850995451185
O          -0.79047103705696   -1.72883270204360    2.08095279450433
H          -0.28833886709299   -0.36154411826129    2.31432803362689
H          -1.55993356354455   -1.48780730982819    1.52876589950619
O           0.81055845754241   -1.70011814975611   -0.00788981188611
H           1.40195160400877   -0.93006971102096    0.08744277588203
H          -0.12447792358642   -2.00788473093597    1.40728215314101
O           1.88615572440129    0.82600729037195    0.03847083190070
H           1.00168638384784    1.19976206972077   -0.12942515432055
H           2.25631079493108    0.73227306032048   -0.85480059502546
N           0.06104573281794    0.68562927237836    2.23661118013599
H          -0.17594148968542    1.23961739958874    3.05241750991329
H          -0.40222112576051    1.06688291723761    1.35624261151160
H           1.06627338412056    0.70408314053470    2.05431922871280
