    23
        -45.38129254  Gyration_radius:  2.28535104091 Dipole_moment: 2.177
 S           0.78769219798047   -1.49019950402193   -0.66656680883562
O           1.43947788683221   -1.63543924032469    0.61735091697877
O           1.15569734492925   -0.28297395302203   -1.38465426331382
O          -0.66189235500379   -1.62879593435941   -0.55707249763073
O           1.29304486210359   -2.69389469295446   -1.56349146881822
H           1.30022725697068   -3.42689115566068   -0.95600617989734
H          -0.84821196967585   -0.99934486407548    1.00208072926775
O           0.01681363564584    1.95030964945865    1.40243332105737
H           0.96813134046365    1.70179526806797    1.35038600595107
H          -0.42224598294442    1.14337118744618    1.74590449938133
O          -0.87486836250557   -0.55107224509721    1.87034230636451
H          -0.14770054897457   -0.94429612457475    2.35988343848149
H          -3.10608811359466   -0.01725275021436    0.03001035697663
O           2.39100524509236    0.83505789016828    0.88679089540622
H           2.59470346618223    0.97707802546507   -0.04132348274919
H           2.13204931936678   -0.10713422802969    0.93007027303194
O          -2.74968545264137   -0.01233590043323   -0.86216153424905
H          -2.10423669252852   -0.74865228022937   -0.88471216635166
H          -1.57396750069100    1.12854528230246   -1.08085736336684
N          -0.64150882001677    1.61286112100656   -1.07975685181787
H          -0.62241099545414    2.39734373613045   -1.72129518699917
H           0.08231728862930    0.88831434038772   -1.33566625195663
H          -0.40834306015344    1.90360637256847   -0.06168867690963
