    23
        -45.36306618  Gyration_radius:  2.38897784938 Dipole_moment: 4.651
 S           0.23293006208191    0.01488276152041    1.16504754126218
O           1.42454899309126   -0.70202930454470    0.80725345052533
O          -1.00005437674467   -0.68899806202125    0.91979814774387
O           0.19191313585650    1.37123721154412    0.44792393279473
O           0.31768091871066    0.42226246298459    2.64017421707359
H          -0.61691246933255    0.80124049392585    2.84205845753602
H          -0.23046591419209    1.31784602033145   -0.50740733845408
O          -0.76179246502968    1.25930348174186   -1.86229821994678
H          -0.38960380190452    0.40427735147957   -2.26431460050863
H          -0.35841801654364    1.97343256454425   -2.36201286649303
O          -0.00599649219212   -2.58206752158890   -0.74992081955345
H           0.83640058392686   -2.50296390078555   -0.29114006244911
H          -0.61720906644455   -2.05419165102994   -0.21178266342994
O           2.69766551779343   -0.08461000483290   -1.48287094650342
H           3.54514295737588   -0.53266108923257   -1.47463809061771
H           2.29848332225044   -0.23797952318226   -0.60569332264035
O           0.41374593803650   -0.83420352346692   -2.76801528765447
H           1.31869879532187   -0.58653338529121   -2.50079617429460
H           0.17074166422934   -1.58566896019062   -2.18727383566684
N          -2.12433539513727    1.18679336183722    2.69731476143357
H          -2.28189408158147    2.11013284081117    2.31605915177976
H          -2.76673370413530    1.03279600599908    3.46319234953982
H          -2.29453608544245    0.49770235944573    1.96934221855267
