    23
        -45.36596495  Gyration_radius:  2.40350951377 Dipole_moment: 1.819
 S          -0.45201694413508    0.05495177085426    1.51141394388082
O          -0.01210571418573    1.19773753361803    0.74817868181904
O           0.61088444437080   -0.71973178456335    2.08759780522583
O          -1.33940933654271   -0.82833027836639    0.62076488957389
O          -1.42695296575221    0.50704941142834    2.60066119298422
H          -2.08974511444080    1.10025636448439    2.07999251758733
H          -0.79409947480718   -1.35657178657926   -0.10575372924367
O           0.48090149526766   -0.08511224261235   -2.88843779404735
H           1.01201954397605   -0.26733913037887   -3.66508769188682
H           1.06413904317699    0.41422164808412   -2.26369806502903
O           0.06831293718432   -1.99137086725088   -1.09237866767147
H           0.11206891603534   -1.34410386478008   -1.83953913818148
H           0.95521583818105   -1.98344609403737   -0.68447600240336
O           2.37128241523010   -1.55936596783300    0.32140445271735
H           1.80030707533739   -1.24211090003911    1.05734703376502
H           2.97161481038575   -2.20158482884327    0.70443408712067
O           2.04329891457107    0.91879116900609   -0.99747335757216
H           1.35975027763016    1.19709865971762   -0.36237997287762
H           2.43707162702469    0.12493618443035   -0.61030938488430
N          -2.74936629048495    1.90501280009875    0.92254668385965
H          -3.22720195131664    2.78439232389361    1.06905695728376
H          -3.32516386502773    1.30490642116304    0.34686769168550
H          -1.87080569165830    2.06971344850859    0.43926788631501
