    23
        -45.36324341  Gyration_radius:  2.34739524386 Dipole_moment: 3.220
 S           1.35199041991650    0.18710353063636    0.91248568180419
O           0.28855186483737    1.16090620987886    0.97368618844217
O           2.63844904907812    0.73400399198970    0.61007861587052
O           0.97303197446093   -0.88367380258380   -0.15472076586991
O           1.40674696135609   -0.63589221755287    2.18645912644319
H           0.49156767985395   -1.10617284153228    2.33295622621227
H           0.87595620233075   -0.42393331114311   -1.03836252125234
O           1.55106814062755    2.58895413858817   -1.00403694044660
H           2.22712016246747    2.12392048321834   -0.48026400099153
H           0.82167049265491    2.70687566312470   -0.38389261607149
O          -2.13343168987842   -0.00385768780713    1.04031158211119
H          -1.38078381029222    0.61356626009451    1.02434884302517
H          -2.17823163133076   -0.36839194326519    0.12590096157086
O          -0.86053435685405   -1.66862547287277    2.52407985047671
H          -1.45116601325023   -1.08374477255246    1.94370200164044
H          -1.13600626528121   -1.51214647947420    3.43027393302394
O           0.81468788332230    0.47135152391378   -2.35590430273971
H           1.03261974539775    1.36193344208173   -1.96469769776987
H           1.54343660886871    0.25686206794408   -2.94294077997430
N          -1.82626274987696   -1.01971626592149   -1.47005642089935
H          -1.27515763891310   -0.34368248032685   -1.98658970493893
H          -2.56005526168478   -1.36005485804979   -2.07842463769055
H          -1.21526773780100   -1.79558518839685   -1.24439263198585
