    23
        -45.36314837  Gyration_radius:  2.39131839524 Dipole_moment: 1.875
 S          -0.65027988867670   -1.43466305739346    0.07986757264333
O          -1.97894769326508   -1.95713953565916    0.01710671472434
O          -0.36598699943083   -0.65353303248206    1.26230915601966
O          -0.37262885092753   -0.52313868619198   -1.15301010810221
O           0.35049926688012   -2.56091100047144   -0.08912841714019
H           1.32555941578291   -2.19785621699936   -0.15515397421928
H          -0.77853522628791    0.35854527518575   -0.90458727495483
O           2.10544579754990    0.44718722285781    1.20787888249661
H           1.94567997889416    1.15170980235226    0.53394731240070
H           1.22142373773183    0.12041078418882    1.44950480672053
O           2.68903577548319   -1.65287766748653   -0.13796362498885
H           2.57384055052752   -0.78918480612108    0.38151505436476
H           3.24228302952128   -2.22311294304219    0.40079452005841
O          -3.73596347000597    0.06570893357936   -0.04694018388774
H          -3.21730639377683   -0.76129187608116   -0.09445188984014
H          -4.39030502325089   -0.06824040645279    0.64116594887720
O          -1.48271477388214    1.49245143678633   -0.00380866087016
H          -1.15526135232020    1.09478798388344    0.81638880212063
H          -2.41973026578794    1.20884602661450   -0.07265911227429
N           1.39149169829432    2.10799261982585   -0.81546093872667
H           1.35829988840268    1.45798563988424   -1.59185786577062
H           1.90592887981596    2.92773525583663   -1.11128014442770
H           0.43817192869071    2.38858827733199   -0.61417656521239
