    23
        -45.36314839  Gyration_radius:  2.39135516136 Dipole_moment: 1.882
 S           0.94373663698374    0.64502501455738    1.08710847811902
O          -0.45780999668461    0.39536459947303    1.33729972528925
O           1.37807626522951    1.96908233309679    1.40430736495284
O           1.20519338832796    0.33990681625162   -0.41826100961983
O           1.81869250931643   -0.36523231179481    1.80289693262288
H           1.59535160760383   -1.33992008768609    1.50778069994206
H           0.42752067750600    0.75628125354512   -0.89335617603158
O           1.17789611555368   -2.69968499204876    1.14328606771187
H           1.16641655310861   -3.24154681808941    1.93559959160324
H           0.20957080588775   -2.56684150194307    0.87150398622685
O           0.07124854446735    3.73378316134835   -0.13226858673787
H          -0.32336894291584    4.40328648098713    0.42959433350412
H           0.66353616786732    3.21018809106224    0.44242646327676
O          -0.99028834512539    1.48927291011312   -1.10677075339700
H          -0.72455655439360    2.42281432030186   -0.96146404434871
H          -1.31875986247400    1.18091567748486   -0.24936988929812
O          -1.22990520425360   -2.07120505397502    0.53535153750024
H          -1.22216094932075   -1.92510086228378   -0.44175519798655
H          -1.16110344953350   -1.18290936002888    0.92632729359160
N          -0.89015109303268   -1.40115748614965   -2.07182030163094
H          -1.20771444271640   -0.44148468289911   -2.15024452807344
H          -1.25224928927781   -1.91906575254601   -2.86216216362069
H           0.12082882787052   -1.39177173876432   -2.13600980357187
