    23
        -45.36357990  Gyration_radius:  2.31674662353 Dipole_moment: 5.816
 S           0.23746059155389    1.06053703101370    0.95167769541107
O          -0.10799783191646    1.07195626735358   -0.45308777129945
O           1.63637434887058    1.04651607712079    1.22932465188816
O          -0.45516728696098   -0.17012896024770    1.59750660780622
O          -0.46161920613808    2.21478704061087    1.65580125604855
H          -1.43637614338486    2.15406198858224    1.29250808313659
H          -0.03239002666448   -1.03655553992633    1.27397861988490
O           1.48992014287246   -0.13118373425455   -2.41564068039906
H           1.06658659171770    0.58515207193091   -1.92245862318064
H           0.78085079638660   -0.77240725739696   -2.56753345130214
O           2.72047201405243   -1.01464282770307   -0.20311995237396
H           2.62686597516983   -0.21304506517851    0.33683593388992
H           2.46565251007653   -0.74594558695691   -1.11528620483952
O           0.68632649732749   -2.26877075305214    0.70474910502841
H           0.96853994910754   -2.86545221990868    1.40073973662454
H           1.53564885721411   -1.86571372516074    0.31486665271240
O          -0.92227763657661   -1.35500103333380   -1.50310561013225
H          -0.75595197878189   -0.47555110050487   -1.13245781145198
H          -0.54877119099956   -1.97938543018638   -0.87220061531684
N          -2.69773867979678    1.78295498647181    0.51873446438171
H          -3.39954049860996    2.49132702141126    0.34872832856919
H          -3.13909156049529    0.96437414062171    0.91692205139314
H          -2.25777626401044    1.52211660869932   -0.35748246642470
