    23
        -45.37350745  Gyration_radius:  2.30949771393 Dipole_moment: 7.165
 S           0.02685572434007    1.09073166866717    0.23917124794892
O          -0.67519795096705    1.05834486223180   -1.04416716238291
O           1.41359670800987    1.45659019316017    0.11020073806674
O          -0.06312315224052   -0.36943857827924    0.81634171368863
O          -0.71389569731830    1.87217289161971    1.23278391782632
H          -1.82132158577303    1.05322299702018    1.51244160475776
H           0.51963425588410   -0.98858066708162    0.24173168095908
O           3.36639364499139   -0.31482225112516    0.47646502534316
H           2.72407256774360    0.41383932394757    0.34220979568788
H           3.70338038597232   -0.20948960334294    1.36674214296439
O          -2.49130307206334   -0.75321436541765   -0.75674771153471
H          -1.86408975396996   -0.03059101427499   -1.02517373669486
H          -1.98537205873058   -1.56622659853402   -0.83330440321703
O           1.41941020127248   -1.78496415137980   -0.66890618833489
H           2.27550769254522   -1.55460193633196   -0.26038928159704
H           1.40000086159977   -1.24968149957772   -1.49812435267903
O           1.34429924353010    0.13745844964959   -2.50210870827378
H           2.07317214291388    0.69864575548860   -2.22392362107979
H           0.54562141112326    0.55551516823567   -2.12441746273454
N          -2.63845080883172    0.29783608945849    1.64575125450870
H          -2.35600464960854   -0.34605586073916    2.37841641843371
H          -2.68166404557538   -0.21273253569946    0.70608735966237
H          -3.52152207484900    0.74604169230436    1.86891971867332
