    23
        -45.36607940  Gyration_radius:  2.38910905899 Dipole_moment: 2.150
 S          -0.43371791691772   -0.18046531345822    0.90269217116134
O          -0.96094066402924   -1.09790787089529   -0.08205780002550
O          -1.32690756478520    0.88555750693797    1.25485656747816
O           0.89617617465044    0.39268102071510    0.39547069108829
O          -0.03494565375186   -0.93839811448268    2.16255781609399
H           0.56161614976386   -1.73462985453862    1.90878729210103
H           0.72740028866098    1.13240619559656   -0.34444407202032
O           0.31545688547426    2.12496639589270   -1.29541007682793
H           0.01093701580354    2.84074642981197   -0.69563684516732
H          -0.51452425835170    1.72821705886965   -1.65082540209679
O          -1.99567904716127    0.84835229356601   -1.61238405614558
H          -1.74480060396064    0.01833580233586   -1.16920333088256
H          -2.58954085470348    1.29553313141868   -1.00378522910119
O           1.33761490563014   -2.92903909235596    1.40662723669981
H           0.72638721924491   -3.66925418886227    1.38715828299822
H           1.52320415604965   -2.68988669492422    0.44753333535248
O          -0.78685065526786    3.46328382121178    0.73439711294958
H          -0.31735765576975    3.83839414275772    1.48097526754002
H          -1.10084098557054    2.58373626845031    1.02109384253595
N           1.49098121619646   -2.13080692777629   -1.09761448792455
H           1.60544820827517   -2.66807249564319   -1.94760054909808
H           2.08237560529399   -1.31134579838749   -1.15706261987511
H           0.52850802521466   -1.80240369624572   -1.04612513680877
