    23
        -45.36607936  Gyration_radius:  2.38895940103 Dipole_moment: 2.148
 S           0.80113727714351   -0.60746946291516    0.15822232479642
O           0.40537852070300   -1.98559448551712    0.10942187303350
O           0.45330028697907    0.06847290656822    1.38769896045952
O           0.19394431784562    0.15678884712558   -1.02568390659981
O           2.30110579212338   -0.50666483107141   -0.08736401316946
H           2.59719252481131    0.47269165535522    0.00055404005655
H          -0.84563294461498   -0.03490633715947   -1.10192991691118
O          -1.99799473643106   -1.01644193449536    1.50768784358592
H          -1.80675073877642   -1.95795981088656    1.51331166084501
H          -1.14369841777878   -0.57601650992355    1.66413090858969
O           2.92904330838174    1.92280236114079    0.25953920685416
H           3.26589512293135    1.97433120611522    1.15715082899179
H           2.02450900927222    2.36238196801782    0.27086978238308
O          -1.41303356486112   -2.91311288565336   -1.63383830118859
H          -0.71551282073699   -2.73278124020664   -0.97396382542961
H          -0.96253144415632   -3.19140826306192   -2.43269040753816
O          -2.22431132343092   -0.43178302822229   -1.07658641350102
H          -2.37628200725222   -0.56226785793345   -0.11091425778046
H          -2.16176795842260   -1.34110772245922   -1.44273600270622
N           0.43725069424419    2.75375958286612    0.43919496014642
H          -0.01175738257832    2.67959031989383   -0.46507148117640
H           0.05018669338048    3.55460189389078    0.92194079328558
H           0.20032977123940    1.91209363850960    0.96105537297694
