    23
        -45.37527159  Gyration_radius:  2.25051829679 Dipole_moment: 8.053
 S           1.15591607448323    1.03921071247863   -0.11727177529990
O          -0.16739069804677    1.46426104202622   -0.59388937293355
O           2.17299831786140    1.07752104774603   -1.11790648301375
O           1.03555996098823   -0.26000260771234    0.56321149274576
O           1.56067942843382    2.07171820013289    1.00706935045125
H           0.94864856849339    1.91990086690874    1.73673741938500
H          -0.17522150398662   -1.59761082195699    0.24952555187350
O          -0.72070083851418   -0.62921869818239   -2.32147036612200
H           0.16592914778791   -0.96088172654156   -2.56442954369792
H          -0.56108072259964    0.24575744508789   -1.93563335700858
O          -1.06133844713515   -1.87529109109282   -0.04475298930904
H          -1.06357637283121   -1.62252152960677   -1.00557665074644
H          -1.81038863262524   -0.67367621385196    0.49465898149383
O          -0.10810183498628    0.60833304268427    2.68940605083994
H           0.35297697406179    0.13373389195285    1.94807752105713
H           0.28435259324822    0.28769205508419    3.50333946873304
O           1.89716801026030   -1.30459549325232   -2.28450979014766
H           2.13805928786513   -0.40994146591050   -1.97649031570866
H           2.13650403734605   -1.89794253628702   -1.56998089489078
N          -2.04398939045594    0.35312827680090    0.78446412953345
H          -1.36164405442876    0.92444313831707    0.18321863759314
H          -1.76562541715740    0.49820883464999    1.76079430695291
H          -3.00973450805032    0.60777362054208    0.61140861821443
