    23
        -45.37905387  Gyration_radius:  2.3636069603 Dipole_moment: 3.622
 S          -0.76959475016766   -0.38820962724717    0.97937306056323
O          -0.88917050666833    1.00982973144958    0.58969721983162
O           0.55072816238882   -0.66153765427264    1.54019211108742
O          -1.06572838537155   -1.28995205099366   -0.13107888153881
O          -1.83106059386943   -0.63122955123676    2.09408387798284
H          -1.88871345765584   -1.60799824593785    2.14660544778984
H          -0.14401524518272   -0.97926214018543   -1.55607591265696
O          -0.76895057922235    1.83030502391362   -1.98246542201806
H          -0.20265624455476    2.59158361104038   -1.83369598279090
H          -1.04550299691059    1.53767254023918   -1.09396280912956
O          -1.84382386079794   -3.19710640806150    1.48231839703232
H          -2.68728789737079   -3.55935371682086    1.20121259166326
H          -1.47976750377782   -2.71271881291016    0.71255137246426
O           0.47268821493299   -0.53824134944417   -2.17691841858502
H           1.58606033264220   -0.16078573014123   -1.19165752548055
H           0.02434802853716    0.31018144482944   -2.38302468233490
O           1.22201148449236    2.56835515539322    0.32673399463132
H           0.38916708712311    2.05977423875842    0.47686332601835
H           1.40519480522350    3.01584016886253    1.15402657874431
N           2.15466664436862    0.12816123358341   -0.31768756529039
H           2.07748576610664    1.15771216087335   -0.18973012784749
H           3.11669687349924   -0.18891899587450   -0.35439866122168
H           1.61722460226328   -0.29410102578671    0.50703800106052
