    23
        -45.36728296  Gyration_radius:  2.4045865829 Dipole_moment: 1.834
 S          -0.43722955719048   -0.76506819551613    0.43442794949739
O          -1.25198274205304   -1.52532563791117   -0.46898127702313
O          -1.04832822300530    0.46356089081233    0.88525147818495
O           0.91821389493714   -0.43906489523952   -0.21699280048387
O          -0.03546059494727   -1.62914981443386    1.62229931770155
H           0.79529279919095   -1.18270922912049    2.04395179889572
H           0.78073623663249   -0.03743694691210   -1.19832207173277
O           0.42648518725723    0.43187851846905   -2.48744559176192
H           0.15830099847701   -0.39991703687722   -2.93665735294696
H          -0.42291979436138    0.89672017074273   -2.29604689347887
O          -0.61634012089401   -1.96138791495710   -3.03565277200916
H          -0.96234670924880   -1.91550263772888   -2.12296963266132
H          -0.16410197442790   -2.80291099188642   -3.11166267539523
O          -1.94805445083949    1.15064271069597   -1.54620759989527
H          -2.52134785596514    0.41080364316188   -1.76277364893709
H          -1.74057784650483    1.05299249236566   -0.59953048913362
O           2.00088466659747   -0.37492892366589    2.40804115379230
H           2.43936321090782   -0.30879448794621    1.55429385906429
H           1.60187394766241    0.53092031718626    2.58588600884281
N           0.70496578384494    1.91480532418755    2.59441488767381
H           1.06705642021643    2.75357433996300    2.15853746103002
H           0.30735867839485    2.17671194872772    3.48750098610243
H          -0.05184196467158    1.55958637579507    2.00863791464079
