    23
        -45.36596494  Gyration_radius:  2.40410158125 Dipole_moment: 1.815
 S          -0.09400575557947    0.52294535210373    1.48575158693146
O          -0.03500894699675    1.37509023792037    0.32277952103354
O           1.18498684368390    0.07155146951105    1.95739067353327
O          -1.00789230654811   -0.67411165925378    1.18131387838779
O          -0.84973737406993    1.23585622485983    2.60906981369257
H          -1.70256225555894    1.56735750932709    2.13411747688667
H          -0.56723874668231   -1.37043522171491    0.52924232939261
O          -0.18821673358575   -1.01206468031981   -2.74665600320799
H           0.43281193883050   -0.28726446313435   -2.48433608834807
H           0.17594367189598   -1.40364449945426   -3.54195725664343
O           0.13497610541573   -2.22954321742388   -0.41347622563230
H          -0.09932590815547   -1.86925026854919   -1.30476513528657
H           1.07893223007086   -2.01713968069836   -0.28330976999682
O           2.60163303686777   -1.17316943251856    0.12272808981713
H           3.36946376112750   -1.60195252789048    0.50498774603683
H           2.17270553216678   -0.67266203677851    0.85337524582561
O           1.58025618021944    0.68813220105818   -1.74349213002902
H           2.17611455769120    0.10331081776485   -1.25555604259933
H           1.02541395263699    1.10861427712901   -1.06276363931334
N          -2.73422853510285    1.88500725811776    1.01379818811779
H          -3.30086481121497    2.72286736925661    1.01208235787677
H          -3.32322233441958    1.08429897665322    0.82673465707090
H          -2.03093408256072    1.94620600359843    0.28294073662264
