    23
        -45.36168689  Gyration_radius:  2.49136994609 Dipole_moment: 1.852
 S           0.33759708704610   -1.03624721619483   -0.31695768725144
O           0.14615981072497   -0.98712576332136   -1.72656133933042
O          -0.68107202616139   -0.34604571379975    0.45314543408530
O           1.71245935086774   -0.47822838645157    0.09313899997605
O           0.42103162668559   -2.49256232455179    0.14413838904916
H           0.62255777707725   -2.51608860865229    1.13635771336970
H           1.80758062947779    0.48114544257408   -0.24682377409607
O           0.76071419704770   -2.55449033199250    2.68062004010593
H           0.11298945504899   -1.86167990968501    2.96334435936024
H           0.41627584743810   -3.39347239994774    2.99549139658642
O           1.78462227475392    1.93852273693299   -0.65133580144108
H           2.15814529883942    2.49798768988317    0.03307489520936
H           0.79566665856069    2.13887778985291   -0.67784612483142
O          -0.78150562599950    2.16955287196975   -0.60121445275040
H          -0.93840692496421    1.32535460160879   -0.14757522408822
H          -1.03571465119788    1.99497111268969   -1.54059631417710
O          -1.05233007483870   -0.67720263525261    3.05418488080058
H          -1.06561323862221   -0.52428605763448    2.08536012030252
H          -0.86176315679489    0.17267900442318    3.45550043995839
N          -1.18762577829730    1.22031511086045   -3.09062294000994
H          -0.63413414169693    1.59263788915729   -3.85217112143231
H          -2.09767332899301    0.97682305790003   -3.46123611566958
H          -0.73996108597207    0.35856203964869   -2.78141575370415
