    23
        -45.36215390  Gyration_radius:  2.39955109116 Dipole_moment: 3.330
 S          -0.91616305059227   -0.02932602310663   -0.17321670884812
O          -0.54720866832605    0.43202169810202   -1.48750319070745
O           0.05189317215854   -0.90912897258590    0.42509426426970
O          -2.29436066511964   -0.71458712891460   -0.23184761708354
O          -1.18339342067173    1.18115345204724    0.71138336516484
H          -0.90272109754498    1.05140066850899    1.70317103421024
H          -2.25414560461617   -1.51769621456956   -0.84421006371965
O          -1.99637091956668   -2.62514519347192   -1.91592245818046
H          -2.41671825528885   -2.39662989341521   -2.74825860485849
H          -1.01911620941992   -2.55076737672047   -2.06333629301083
O           0.54878278482371   -1.95035512253509   -2.09680524933094
H           0.83307666395528   -2.06480969455564   -1.18240306771185
H           0.31398715970205   -1.00889197471489   -2.15683833239312
O           1.92618471590638    0.35639195424190    1.94419529259167
H           1.99196115476562    1.03292762192602    1.23186516552680
H           1.49710985766595   -0.39366027692672    1.50585842665858
O          -0.31290537119596    1.00596453490989    3.05881705087591
H          -0.24609027702675    1.89541331523772    3.41397458003671
H           0.61709310763721    0.73080509401374    2.78762324837638
N           1.64897026080677    1.98908073088519   -0.23246688227491
H           0.91615626469614    1.48984281166772   -0.72930207171045
H           2.44098343004810    2.07059044572676   -0.85927251009710
H           1.30299496720088    2.92540554423854   -0.06059939777044
