    23
        -45.37068255  Gyration_radius:  2.30512705811 Dipole_moment: 2.017
 S          -0.25529747797261   -1.09170258515860    0.14378348681906
O           1.04055198709102   -0.77513568123412    0.72767366239899
O          -0.26709162930146   -0.84836089239776   -1.29435496688657
O          -1.31980366852568   -0.32139379367443    0.80844441114696
O          -0.55685637726674   -2.59190422222631    0.36321339483451
H          -0.52140701805046   -2.66201133240758    1.35995106266596
H          -1.28184090732684    1.07174818272113    0.49014233268719
O           1.41550758046325    1.75535303758755    0.16575261484412
H           1.64354232663389    1.63420101971419   -0.77897568459362
H           1.41072541064492    0.83430692700986    0.52364801036599
O          -1.30127552053102    1.37317789794008   -2.34086368203292
H          -1.14398194326953    0.43739786368936   -2.09340997706603
H          -0.51177198590050    1.63618011497210   -2.82680499968399
O          -1.06846880707844    2.03829461683744    0.10793413334742
H          -1.26747492708515    1.93500553629386   -0.89417644434582
H          -0.00934652522150    2.07222777839926    0.18244266070965
O           1.56682711939142    0.76083193571255   -2.33181257370149
H           2.36746657682438    0.31312463627719   -2.60809255452531
H           0.96503529971929    0.05985039685194   -1.99310652348915
N          -0.28267579924178   -2.09287311397340    2.89171219952628
H          -0.09977638293692   -2.54290076648720    3.77970370618584
H          -1.05275827482604   -1.44455677249121    3.00197530773458
H           0.53017094377227   -1.55086077394933    2.61522042304638
