    23
        -45.36586790  Gyration_radius:  2.44641394426 Dipole_moment: 1.640
 S          -0.45958802599571    0.03356345252371    1.33625763874926
O           0.04930449966215    1.33892330889473    0.98031640458367
O           0.55315447122290   -0.97579809536360    1.46931391604360
O          -1.51868515834866   -0.38632603203315    0.31781974714889
O          -1.26083449031221    0.12900125757105    2.63975650837979
H          -1.89607946915931    0.91089772665960    2.45796191898231
H          -1.15685873281198   -0.39117506810239   -0.69381987503116
O          -0.57697381578267   -0.35741537443792   -1.97629004151985
H          -0.14992148563137   -1.23429692801492   -2.11431228637049
H           0.17952951514843    0.27667133759841   -1.87027803285780
O           1.06489951890525   -2.45927992659800   -2.20796684303708
H           1.58880814059597   -2.39851809425646   -3.00891972086797
H           1.64218770030093   -2.16931227221403   -1.47477457824640
O           2.54626505253680   -1.36019897609326   -0.19562526005312
H           1.81738019286397   -1.24253083467132    0.45687251506650
H           3.25488407827455   -1.79663352422579    0.28050183920088
O           1.53106955414900    1.05377160527750   -1.25445904258939
H           1.10460753676858    1.35561949830154   -0.43227464104453
H           2.13787890876386    0.34904347396870   -0.98800418620156
N          -2.56441831284484    2.14249135045295    1.73902398969455
H          -1.71155177979490    2.40247973611712    1.25196842025727
H          -2.93221806305903    2.94580233284450    2.23143364218541
H          -3.24283983544766    1.83322004582121    1.05549797753706
