    23
        -45.38087044  Gyration_radius:  2.2762722323 Dipole_moment: 2.856
 S           0.23571808461727   -0.97183455203574   -1.41569904204765
O           0.31575583464146    0.45251763280447   -1.68977661523522
O          -1.13252505938598   -1.41603464045899   -1.19984395023172
O           1.11328122082757   -1.39769177825955   -0.33856685153297
O           0.75712127975013   -1.68524745972908   -2.72937596646401
H           0.82915823641289   -2.59668770008013   -2.46586171926738
H           1.61212127278071   -0.19564285353291    0.77117115215982
O           1.64088736663290    0.58755358506081    1.36131782020210
H           1.90183227547443    1.32266027691555    0.77303912983325
H           0.14900288415809    0.67078951268157    1.73643017450273
O           1.94175021245166    2.31549202263471   -0.68736436721455
H           1.53115938483546    3.15536299041686   -0.89828581355914
H           1.44145119623455    1.63713673643657   -1.18337954092819
O          -1.93320587745421    1.15349802630520   -0.53458318583846
H          -2.43597788588978    0.36939119939292   -0.78081714753843
H          -1.10398081845489    1.05371173501038   -1.05248687923722
O          -0.98892636285522   -2.07112211782287    1.32595039265171
H          -1.19604411107870   -1.93471152019140    0.37195847917674
H          -0.04822137860604   -2.28120194489552    1.31621135218634
N          -0.91387746824946    0.52159377748490    1.83949543801081
H          -1.27818179838282    0.93283617265436    2.69108305664827
H          -1.05025459251379   -0.52946541738265    1.81195559405690
H          -1.38804390593714    0.90709631658967    0.97742848967127
