    23
        -45.37811683  Gyration_radius:  2.37700490069 Dipole_moment: 3.954
 S           0.48811847453034   -0.66462539751090   -0.40033822347382
O           1.46887880765882   -0.10603915720383    0.53105695830688
O           0.47509175629290    0.03919464007700   -1.66519358949242
O          -0.85357836887858   -0.66370366029772    0.21651264948261
O           0.87097524220808   -2.13308598283621   -0.69611914199752
H           0.99587259227871   -2.61575136327603    0.17026874964477
H          -1.38991054383507    0.74829495379637    0.05113640364467
O           1.27104609919545   -3.20979733469354    1.63586282363431
H           2.21347515120731   -3.16161670017603    1.81033613229127
H           0.84899090515182   -2.51279562828008    2.19894798228982
O          -1.56454755858478    1.22739280080283   -2.81751242049328
H          -2.10388086124531    0.55634995133491   -3.23886655188573
H          -0.73660692236064    0.76830650530887   -2.53903219160509
O           0.21724479826803   -1.02249382586161    2.67649609531450
H          -0.57748015214428   -1.02175215434545    2.12488423417644
H           0.85534111287525   -0.52597547986353    2.12955625889164
O           1.02775570854462    2.39666245734717   -0.12258471831020
H           1.30907624606791    2.39620571280386   -1.04187569637313
H           1.31501262828260    1.51711329194196    0.21853555327498
N          -1.53884128466350    1.77715986340167   -0.22134392177513
H          -2.23839887494785    2.24264366879431    0.34599141969014
H          -1.77910101102309    1.75717948249248   -1.24087720433446
H          -0.57453395486826    2.21113337624520   -0.12584159089665
