    23
        -45.37811680  Gyration_radius:  2.37699715757 Dipole_moment: 3.954
 S           0.15365956871892    0.82493803968542    0.36745294918290
O          -1.21356719973422    1.22983791188332    0.11794736887131
O           0.97652403205631    0.88852659431351   -0.84085294031735
O           0.20369431474194   -0.53411795434299    0.94293039009252
O           0.73796840642452    1.80257310359965    1.41295657938421
H           1.71392324598175    1.61552493820066    1.52131560719901
H          -0.78111824658552   -1.36627696744359    0.13837909770564
O          -0.89097293016514   -0.00303058346690   -2.45443340835459
H          -1.54367372359465    0.69904558195070   -2.38094247687853
H          -0.09934392542224    0.35326638488061   -1.98664558437080
O           2.73573398402910   -0.87757885399569    0.05101949025500
H           2.27043404505588   -0.27622044232745   -0.56115705915204
H           2.01855918942600   -1.19826226334647    0.61569320047920
O           3.28087975756252    1.26829641426269    1.49131752839480
H           3.26629596015678    0.39581045090040    1.02274981297582
H           3.71635191825519    1.88438897872157    0.89827671489983
O          -3.40016485237811   -0.15933486072028    0.55177539947268
H          -2.67760334093145    0.49625010227165    0.40342234741227
H          -3.60408356258637   -0.11301767865163    1.48723519151871
N          -1.54104053867767   -1.70566638431608   -0.54138011567119
H          -2.44165219452359   -1.34550691817340   -0.14526741852523
H          -1.53599473689260   -2.71060904127378   -0.67562281215873
H          -1.34480914089493   -1.16883657263183   -1.43616987242295
