    23
        -45.36727175  Gyration_radius:  2.33889597995 Dipole_moment: 3.835
 S           0.21970364150808    0.78691890558083    0.76531257526584
O           0.46294182429693   -0.13719542318509   -0.35943944581488
O           1.43505407843878    1.27793037040179    1.35308169812258
O          -0.56506398178667   -0.05206665049897    1.83400478073957
O          -0.71546847415488    1.83293457362287    0.35515848693846
H          -1.73716114606514    1.47404544861593   -0.54954150097285
H           0.11350160020151   -0.62653947755602    2.29203521727262
O           2.83965291721374   -0.87760808829218    0.80477972544663
H           2.61176541556999    0.04895864997071    1.02063870625117
H           2.25927858707388   -1.07491591859656    0.06043307984956
O          -1.89257733254356   -1.28311099468444   -0.30774734643454
H          -2.08491374975634   -1.33353189050553    0.63327351879772
H          -0.94147274762904   -1.02562515515772   -0.35545008311316
O          -2.34917930666230    1.02202965563565   -1.29701426620104
H          -2.40789946596902    0.06527624293553   -0.95660254147604
H          -1.63776556904289    0.95591325576518   -2.10209881060523
O           1.32305275458314   -1.46777851508264    2.88238908510202
H           1.70294773257341   -0.96130626598523    3.60383482814799
H           1.98362733057714   -1.42122327036981    2.14402733154198
N          -0.40122224484387    0.74966153857409   -2.87898364506004
H           0.02759218664113    1.59317625288535   -3.23598832370903
H          -0.40917918979726    0.05080023988324   -3.61033166997514
H           0.16278513968689    0.40325649622742   -2.09577141059488
