    23
        -45.37290445  Gyration_radius:  2.23488139951 Dipole_moment: 8.432
 S          -0.03169836509809    1.24978249657200    0.93692711026292
O           0.91089010104002    1.68379305787802    1.92623984077194
O          -0.37803678618433   -0.17736472983210    1.04283681039253
O           0.60597097947750    1.41374713485829   -0.49740319589629
O          -1.26143209251264    2.04341033632691    0.86416081782598
H          -2.12183414074907    1.18944973136600    0.16137489788346
H           1.45678917541478    0.86126410109013   -0.51703031242258
O          -0.90262407156385    0.01732839711410   -2.31642368975223
H          -0.30988621108647    0.71233070679858   -1.98208332297697
H          -0.46508816316982   -0.81441622069178   -2.06524771456095
O           2.24049729678065   -0.57828668002888    2.12946268910724
H           1.91701570797386    0.34162693468727    2.22616178373304
H           1.44614574635405   -1.11059412168686    2.22488328530604
O           0.30799798730231   -1.88697198869063   -0.77782354970905
H           0.24514413296517   -2.77200919555170   -0.41699555034714
H           0.05218661860584   -1.26124578917493   -0.04749694831611
O           2.54256266316883   -0.25017729036508   -0.49845390829911
H           2.65786454278291   -0.40068242376511    0.46896815629075
H           2.02701739169291   -1.00545232746779   -0.82038053931175
N          -2.65636847690695    0.37188119686089   -0.39005726945169
H          -2.06860483663750    0.19719804934218   -1.26579708300364
H          -3.61732762723267    0.61433539112912   -0.60736966149129
H          -2.59718156241324   -0.43894675676964    0.22154734396505
