    23
        -45.37290448  Gyration_radius:  2.23479609854 Dipole_moment: 8.431
 S          -1.22187350820723    0.97306679323898    0.00470819557730
O          -0.23400786737302    0.48922600228569    0.98352610035208
O          -2.57995664017264    0.74368721968772    0.40290767647897
O          -0.92284134767605    0.16404952506768   -1.31685700069039
O          -0.90866989587889    2.35826210444979   -0.35641988529502
H           0.49111232183047    2.37095650305017   -0.28830953024289
H          -1.10073226835887   -0.81558955347690   -1.12103718517795
O           1.34282704763556   -1.49769955881888    0.46026836301053
H           0.73343345584814   -0.74930788474179    0.70308254414853
H           1.70451608705623   -1.83554754070580    1.28028476684766
O          -1.11263344289893   -2.27756235437213   -0.59515371612235
H          -0.18494485351411   -2.37750346172466   -0.33197236883914
H          -1.61833407131665   -2.18336121497155    0.24581472185785
O          -2.16361887153048   -1.49314025261364    1.72540530476153
H          -1.42626576767337   -1.13591260293742    2.22754983397358
H          -2.55984349381039   -0.70420054993453    1.30014678553060
O           1.79039148002568    0.08000930474061   -1.72364432735793
H           0.84503309533356    0.08901389517595   -1.95236201365820
H           1.87850934130629   -0.65348892317701   -1.09072438351069
N           1.59081827548363    2.18790610885002   -0.16534784525946
H           1.69589122824751    1.86204340878790    0.79266154647491
H           2.14539737072911    3.01781116254119   -0.34736307165153
H           1.81579231492310    1.38728188960508   -0.83716451120157
