    23
        -45.36030913  Gyration_radius:  2.35850798223 Dipole_moment: 5.116
 S          -1.04515100821319   -0.66873713165406   -1.43700027170991
O           0.40781372589996   -0.51043873794096   -1.42944904786645
O          -1.70337008805350    0.15856714370373   -2.38741362756304
O          -1.55879702078337   -0.42491283173688   -0.01901527286943
O          -1.37304499421763   -2.14987664659230   -1.66799857729432
H          -1.07659552608629   -2.63766610759618   -0.83412135127201
H          -1.45283937154243    0.62360490385680    0.28582412655997
O           1.26168408058408   -1.34569502581968    0.94550728550310
H           1.15745558606577   -0.54303153571721    1.47758050352017
H           1.09175485847850   -1.05699257578231    0.02743697024696
O           1.43611207087419    1.36667919575055    1.73781331982569
H           2.33941788630795    1.41720018324500    2.05487295787453
H           1.45849264182936    1.61213955184924    0.79482963014430
O          -0.45583163004931   -3.28910615325356    0.44521304358383
H           0.13346439204732   -2.58141102707819    0.80757826454539
H           0.12295964540619   -4.01217458299514    0.19214689736958
O           1.18690410156724    1.94842461638315   -0.95773783039742
H           1.72829435279148    2.25837926923394   -1.68552146066608
H           0.90721146407080    1.03492516252239   -1.20304778126338
N          -1.21279348747296    1.96870610128113    0.65435376464567
H          -0.62956247864048    2.35269061453166   -0.08333462112190
H          -0.67434212268575    1.95516205918952    1.51344553234302
H          -2.04923707819552    2.52356354460847    0.76803753586502
