    23
        -45.37199101  Gyration_radius:  2.36545710797 Dipole_moment: 5.745
 S          -1.01711586168803    0.50781585900001   -0.16192840838554
O          -0.88496167341427    1.73934032995622   -0.89328543989763
O          -0.22245299309544    0.49043188098975    1.06725792617994
O          -0.48048926869132   -0.67694712549205   -1.04458916149072
O          -2.40633348057164    0.11831391383760    0.10583048182358
H          -2.29912843399106   -1.25457173673637    0.33121720011477
H           0.46873573877965   -0.45279458577146   -1.33924647777186
O          -0.31404506211741   -1.71278739063953    2.42627099716101
H          -0.52398631402682   -1.46743023744090    3.32894249660274
H          -0.16764232052303   -0.85538369386364    1.94347585746490
O           1.90177890898499   -0.03982884978590   -1.67455903309253
H           2.26762305325823    0.18140922466525   -0.78386527975646
H           1.83374566160896    0.82808772231765   -2.10109219172372
O           2.34807395399265    1.15644288747206    0.64218193514040
H           2.29376100229697    1.99155411627192    0.16163046559462
H           1.43886952782254    0.96730233330066    0.94269105547700
O           1.44707580914639    2.68784818536893   -1.64081942978919
H           0.55355701348882    2.39496674817346   -1.34905490219578
H           1.31094093675778    3.50757041118770   -2.11715175965311
N          -1.98990484300665   -2.32221723928691    0.50038285983115
H          -1.37174215921086   -2.27699023050349    1.35888450724030
H          -1.41448451136416   -2.55228650751593   -0.30860017431935
H          -2.77187470443620   -2.95984600550370    0.60542646544578
