    23
        -45.36596489  Gyration_radius:  2.40383624585 Dipole_moment: 1.824
 S          -0.37415463306138    0.46778587498111    1.46083988277251
O           0.32453500087676    1.28034040466252    0.49463902304256
O           0.46688955071920   -0.42921692003983    2.20234980385395
O          -1.49011649384733   -0.30924456377825    0.74548170823883
O          -1.16078292455313    1.36653446286862    2.41721853265777
H          -1.66162223829874    1.99843372156858    1.77507349283609
H          -1.12490135734977   -1.09260973948221    0.14798716868465
O           0.35333024571158   -0.77511239051092   -2.80514888158902
H           1.06597249300685   -0.33399736273050   -2.27849223302864
H           0.79407628644233   -1.24087923416518   -3.51744757266333
O          -0.48971587872881   -2.11151914226258   -0.67586015616571
H          -0.30103026039143   -1.65885248491338   -1.53523246374145
H           0.38051611826495   -2.25737287524111   -0.25803132595030
O           1.88795327040951   -2.03365184916781    0.67596736895040
H           2.30713381883329   -2.72501455997540    1.19153388472981
H           1.44426080657295   -1.43840025577281    1.32185352542168
O           2.18095545643489    0.13423940356907   -1.11471484944877
H           1.61367063479975    0.70132258289820   -0.56274628138621
H           2.36502029600321   -0.64284123295946   -0.56940716201535
N          -2.12480750935106    2.70359187584236    0.46750258785034
H          -2.35017860512082    3.68876943353765    0.42659420820740
H          -2.85661652200632    2.17518245626854    0.01106677072664
H          -1.25038754537925    2.53251238481264   -0.02102702197139
