    23
        -45.36754777  Gyration_radius:  2.3988935583 Dipole_moment: 2.359
 S          -0.18062359046289    0.84021049463093    0.38741863514079
O           0.78911553394879    1.46252649792021   -0.46438478659601
O           0.37786719707898    0.30868719334905    1.61736438958588
O          -0.91707440966175   -0.27311164240742   -0.34596044311888
O          -1.29248982174767    1.83933405459751    0.72025391703567
H          -2.08700104055411    1.28245905256925    1.03427000753691
H          -0.19618271901943   -0.93441866549672   -0.89721144293081
O           0.78022242330683   -1.58866639930351   -1.52395502776786
H           0.99460341423489   -0.94760815531082   -2.26737156761409
H           1.51972581532431   -1.48684445564214   -0.87527331502408
O          -3.09039804492410    0.18680050008400    1.41938156913546
H          -2.62991300742884   -0.26214494981749    2.16946396980209
H          -3.00309794791143   -0.40857147356979    0.66807512892357
O           2.48816502124454   -0.69981202322547    0.29609537974781
H           2.76082285112947    0.13569004291999   -0.09379821486061
H           1.83779601120455   -0.45099558380531    0.97593151594118
O          -1.41681488464642   -0.85921813048713    3.17921367000850
H          -0.66541349802788   -0.51369988678127    2.65202467760624
H          -1.30721733906274   -0.50840107255701    4.06487966159509
N           1.28712805463051    0.45673403742499   -3.11165329056199
H           1.15099706397511    1.06005339499645   -2.30030563152113
H           0.59716930202634    0.71179172773789   -3.80646485569448
H           2.20261364616638    0.64920545304890   -3.49799395709829
