    23
        -45.36754846  Gyration_radius:  2.39875444625 Dipole_moment: 2.402
 S          -0.93541201776081   -0.04265921537679    0.09332909970664
O          -1.00909303847645   -1.03923357775047   -0.93392922644204
O          -0.97052450893555    1.31826913488790   -0.41112670418078
O           0.31446696401640   -0.22651757551384    0.94266949490531
O          -2.07708376193360   -0.24661136104104    1.09384515681749
H          -1.80011271635456    0.24939650310634    1.94044389080407
H           1.22118022527705   -0.38981623312124    0.29284799874302
O          -0.82208062188355    3.16087956244330    1.48848390055832
H          -1.52880631387647    3.79186079283465    1.34055814500847
H          -0.81541829226287    2.56763638840050    0.70751462825323
O          -1.09519332712423    1.04357568461283    3.04961051070896
H          -0.99899096586921    1.93608296423008    2.63706093097708
H          -0.21794290577918    0.64833155503848    3.01964029880541
O           0.72327829303378    0.69278172830192   -2.39817021100345
H           0.13183461781939    1.15469375960316   -1.77811271018453
H           0.18545979989829   -0.01669674404783   -2.76110047029034
O           2.17155304599619   -0.60984913565191   -0.60513764857629
H           1.95865678855073   -1.55230735123095   -0.88410342854960
H           1.85686031127835   -0.04274869631955   -1.35229483001210
N           1.12683531795352   -2.92184997208355   -1.32037779002650
H           1.15117473284989   -3.68957122913045   -0.66178559396343
H           1.21810563050311   -3.30825628148150   -2.25132713418346
H           0.21125273304505   -2.47739069053534   -1.24853832789548
