    23
        -45.37540559  Gyration_radius:  2.2974807556 Dipole_moment: 5.638
 S           1.52336293010571    0.27562079565893   -0.64448751258208
O           2.25831984909434    0.47690446460572    0.56508453977036
O           0.39494428092644    1.20974482276901   -0.79813853989969
O           1.06065219339683   -1.09377760327507   -0.85191312892201
O           2.48947591980467    0.60280300653220   -1.85294777596128
H           1.91858885516402    0.50517219603345   -2.60821225490300
H           0.17600548134246   -1.74765618441435    0.59511920334633
O          -0.53954400455099   -1.68200147378583    1.25263097464475
H          -1.44786577141639   -0.79483715173383    0.41497390409076
H          -0.16536669820948   -1.09873478387470    1.96461702632123
O          -0.98398589636705   -1.64375206105142   -2.42170665645230
H          -1.04361806487402   -2.59571993595128   -2.51705507702891
H          -0.15357388073421   -1.47619265781643   -1.91740110144790
O          -0.37721021276151    2.41749659916766    1.46737768273365
H          -0.03518902432760    2.07515853281688    0.61814470986745
H           0.19069287521753    3.15264696505552    1.70366167784072
O           0.61941359478053    0.17069414695647    2.69337707495278
H           0.11707244890190    0.98415063327572    2.50975379823834
H           1.39553303707583    0.23155085212733    2.10832115295409
N          -1.81515103161128   -0.13854124888539   -0.37100496040881
H          -1.01813893203287    0.52995110955424   -0.55251346772845
H          -2.66830040112920    0.35002356765304   -0.12448513468450
H          -1.89611753781254   -0.71070459141159   -1.23319611474205
