    23
        -45.37171580  Gyration_radius:  2.3559899206 Dipole_moment: 6.983
 S          -1.10360780897976   -1.01224204368946   -0.38257081168731
O          -0.02473481888569   -0.88767580996558   -1.35548303312109
O          -2.29611237581463   -0.28038732501112   -0.76374434450155
O          -0.64168191108901   -0.56601529411954    0.95148011486952
O          -1.46386973782629   -2.51305502936883   -0.25911950560897
H          -0.57961239934790   -2.97665811505560   -0.24922216016430
H          -1.29951099534163    0.82467602015274    1.22282695815487
O           0.23416762702550    3.10040875602716    0.00837159090737
H           0.75921831497941    2.35160816044283   -0.37139214009076
H           0.79842427620390    3.50405747150774    0.67048195614195
O           1.63429433132644    1.03679049784703   -0.90767426761958
H           2.03867737762644    1.19983677598412   -1.76219288446393
H           0.98261757077051    0.30044066596436   -1.06406236616005
O           1.02079578466412   -3.23268425676512   -0.45380345466398
H           1.01516721635836   -2.65649994400424   -1.22891729588265
H           1.48700193358034   -2.70891634835557    0.23312393689395
O           1.94171551859395   -1.21267808815897    1.09302112494647
H           0.99988437062014   -0.97971149107363    1.20717590353562
H           2.29764691805404   -0.51654388185141    0.53130652585175
N          -1.84535886527250    1.66096616782297    0.84413195557944
H          -2.51904754915207    2.04747281782069    1.49571217197797
H          -2.29423896974828    1.14994277796001    0.03582676422036
H          -1.14183580839863    2.36686752582580    0.50472322091565
