    23
        -45.37875873  Gyration_radius:  2.31706481062 Dipole_moment: 3.871
 S          -0.93681720683955    0.52282208080093    0.93273782774600
O          -1.12123896597939   -0.56074728713602   -0.03281216802078
O          -0.97616893640798    1.81745875819271    0.27231642550670
O           0.29378976165502    0.32831573278577    1.69592220061576
O          -2.13398501989494    0.48605347744461    1.92994434339469
H          -1.93284411833794   -0.28489888661305    2.50037947394865
H           1.72860002609469    0.23303015052991    0.74131962533415
O           2.29908153034072    0.10775342638273   -0.04585505464232
H           2.06346846685905   -0.79428063916602   -0.35483722603782
H           1.58410942684601    1.04294307708954   -1.01996697888404
O           0.95696784084218   -2.06652555369699   -0.83445481482687
H           0.72373548168856   -2.13877003708084   -1.76289419415309
H           0.17298936196139   -1.67603921431932   -0.40103987900501
O          -0.83991227391338   -0.16685396867285   -2.61343366648176
H          -1.02239048924157   -0.36668262831754   -1.66179172023750
H          -1.68726347248261    0.06573000059332   -2.99542922101154
O          -0.87366534319070   -1.38481136843368    3.29339061568146
H          -0.19980177479909   -0.91163195361749    2.76296456242653
H          -0.66182158451229   -1.21834327922882    4.21466237650486
N           0.84851559544675    1.62862507203375   -1.55947841547728
H           0.12188660701231    1.88601407260690   -0.82455650560771
H           0.34380094361702    1.00710331983412   -2.22742341394675
H           1.24896413323767    2.44373562801589   -2.00966421281242
