    23
        -45.35916863  Gyration_radius:  2.39327247056 Dipole_moment: 2.631
 S           0.03365025717761    1.10755044642846    0.17353743012942
O           0.76229004876983    1.44128650343570    1.35181823993918
O          -0.59042775873297   -0.20549019563296    0.21225517174426
O           0.89806182648904    1.18828767442890   -1.08416780140377
O          -1.04667098589911    2.17118800316429   -0.05678740595959
H          -1.52099660505025    1.99409431561606   -0.93141218985882
H           1.31153069060323    0.24558369024942   -1.24084877917844
O          -2.51055958535418   -0.95170382737946   -1.44851188689285
H          -3.21214313163668   -1.35357534460267   -0.93278723710860
H          -1.77428505429718   -0.78144094149149   -0.82420823382948
O           1.76600884416932   -1.15389052192112   -1.18227945052584
H           2.21390068864295   -1.12866975157697   -0.27202401680546
H           0.95120792607907   -1.64983188019059   -1.06133220831120
O           0.12654555452417   -1.08220288616063    2.72731445977901
H          -0.23655013218123   -0.90392346559205    1.84761892792441
H           0.30076390922866   -0.21197484009475    3.09533793971689
O          -2.35252318777910    1.59718171559667   -2.18803817425067
H          -3.22847724257651    1.98979769327621   -2.18113745656551
H          -2.46899632071397    0.62400193901773   -2.08850389219839
N           2.62713132101348   -0.81926891073813    1.25744961975343
H           2.01909710349452   -1.34937380533352    1.87908825834704
H           2.35099079918836    0.15336250959396    1.36582669343904
H           3.58045102484239   -0.92098812006429    1.58179199210126
