    23
        -45.35890508  Gyration_radius:  2.32922416115 Dipole_moment: 3.752
 S           1.83219809470732   -0.40107783245925    0.92549691675822
O           1.33946845678636   -0.52264537224182   -0.43563901445660
O           3.23284032197117   -0.26478981181904    1.06256357234484
O           1.33678276368817   -1.63184613726482    1.71893997455409
O           1.13975706266039    0.80379526253369    1.58898362807218
H           0.12653822296633    0.67676685180081    1.53811265844471
H           0.42329423781464   -1.90771463008906    1.41952962366421
O          -0.88015037416916   -1.22650154047053   -1.62661128533843
H          -0.66011502966913   -1.63952814839187   -2.46310572851142
H          -0.02735116657996   -0.92027721235746   -1.23865835481166
O          -0.94317720514700   -2.48731106418449    0.80824189937372
H          -0.83946563113425   -3.41401266296030    0.58199731462023
H          -1.13141268929243   -2.00687448387447   -0.02070564461054
O          -1.77982103564833    1.34418176103582   -0.98440232201116
H          -1.69414661475912    0.48656422592058   -1.42565079924064
H          -0.91368943876000    1.79830126166474   -1.12206664196676
O          -1.35665246979378    0.49237245089395    1.41983567293779
H          -1.60384554273727    0.83216235001609    0.50353201769917
H          -1.83397387608274    1.03370054281687    2.05070777777310
N           0.78196829032495    2.23239740625011   -1.11649945997734
H           1.25007716419246    2.66293182106939   -1.90430500013753
H           1.17119535472028    1.30003100719412   -0.99253753891504
H           1.02968109391761    2.75937395491355   -0.28775927625600
