    23
        -45.37862742  Gyration_radius:  2.28691574521 Dipole_moment: 3.441
 S          -0.89664343591798    0.27388588239188    1.57826378665168
O          -0.30065273578241   -0.87356181903846    2.22113219258743
O          -1.74950658667328   -0.03927012881596    0.44710792497109
O           0.08977786446128    1.30171862751660    1.24013939050020
O          -1.85492586774025    0.93892658950607    2.65683301944134
H          -1.36714637623660    0.83851895357993    3.46805504987240
H           1.56338120212561    0.69332382520621    0.42080788458311
O           0.74879208631142    0.39175839644319   -2.43059430130215
H           0.27547637909143   -0.46291862255554   -2.27882578628103
H          -0.18232489744760    1.31640241418064   -1.79624128268190
O          -0.54736044227823   -1.67502183089328   -1.39249426035214
H           0.13059759108811   -2.09580401437088   -0.84116755562125
H          -1.12946291981910   -1.21621952944474   -0.76386558414364
O           1.26164163495395   -2.25063871522854    0.63017613247007
H           1.58739684881949   -3.03018386937110    1.08260050723265
H           0.67807577428326   -1.78031764474571    1.27157261503951
O           2.16747037680176    0.24320217700760   -0.19381198344217
H           2.10504168663691   -0.69697245731292    0.03464324143287
H           1.46992848568155    0.38026508939612   -1.75484874183551
N          -0.86717590030966    1.85739443921431   -1.10436602347159
H          -1.23884648720927    2.72191979994140   -1.48027229548505
H          -0.34457035204374    1.97916780134371   -0.20439491582608
H          -1.59896391880459    1.18442465604250   -0.81044900433771
