    23
        -45.37862771  Gyration_radius:  2.28689142524 Dipole_moment: 3.437
 S           0.09273278958887    0.85373256110031    1.62245915211307
O           0.77456659597780    2.00539240872556    1.08027611731547
O           0.84325603034000   -0.38586165680306    1.54905793742293
O          -1.25889467883997    0.69681267950851    1.08222625681220
O          -0.09652807931130    1.14008809203092    3.17364463931329
H          -0.28452997134356    2.07290734302350    3.19803458480425
H          -1.38113484686899    0.83970139367422   -0.70027465046026
O          -1.23813497552827    0.72318604346712   -1.65487570423634
H          -0.39822052346117    1.17056964172805   -1.84033872163427
H          -0.92933923962239   -0.94510715522859   -1.90438405800973
O          -0.55354955615724   -1.83895732348475   -1.71274041608857
H           0.41243555755974   -1.66403965696270   -1.59537333770424
H          -0.95725226753978   -1.99323013867374   -0.32096009533718
O           1.81427240138947   -0.91598416787844   -0.95694522979008
H           1.82550176640261   -0.02360579605391   -1.33655690388645
H           1.65187947831077   -0.78054052906081   -0.00836456820884
O           1.32966727812638    1.76694995258848   -1.46987206224894
H           1.82740462203545    2.52862897717259   -1.77067053319417
H           1.15806288805734    1.90889089052132   -0.50881309931177
N          -1.14632971407595   -1.87465639082678    0.77029890708637
H          -0.22473416012249   -1.74758687208065    1.22801401070015
H          -1.70258676946082   -2.61723864492960    1.17779020127366
H          -1.55854461546035   -0.92005163156668    0.89836758327002
