    23
        -45.36311423  Gyration_radius:  2.38061848776 Dipole_moment: 3.350
 S           0.29126466811943   -1.25780355933841    0.11225283529570
O          -0.87086637954022   -0.42971887901238    0.35032058153800
O           0.98352762108084   -1.65161823378872    1.29887198921929
O           1.23926560284297   -0.51660396516666   -0.85420588920648
O          -0.10614365178709   -2.48784946095748   -0.69302775965815
H          -0.56596982284708   -2.16317041941668   -1.54898822272220
H           1.51790378037548    0.38043503561287   -0.45275926919433
O          -1.32877549788150   -1.56084886555848   -2.71214753749359
H          -2.25954620199956   -1.75494532179380   -2.57936138563594
H          -1.22699503340850   -0.56666375727206   -2.59825969088957
O           1.55415915375888    0.66043343084035    2.60191849908260
H           1.52034801758248   -0.27089523585524    2.32246624262577
H           0.63299260772735    0.87145652162639    2.85578666528336
O          -1.14120366555390    0.69701588362735    2.79388307919295
H          -1.47375808720560   -0.00493636166617    3.35613604712396
H          -1.14982495601427    0.34272066102793    1.88518772996318
O           1.91982323138529    1.65655418523511    0.25118609796541
H           1.78434676194897    1.39135917648625    1.21450229522001
H           2.86171173533216    1.81337456836351    0.15221008899671
N          -1.09950290557330    0.99544476659075   -2.09411776312317
H          -1.78434651744213    1.72202324599323   -2.26006612081083
H          -0.18386421703401    1.37484574477065   -2.29847156560960
H          -1.11454624386118    0.75939082963080   -1.10331692717436
