    23
        -45.36638240  Gyration_radius:  2.37523643194 Dipole_moment: 7.408
 S          -1.14885974914631    0.27580402126737   -0.01063047172543
O          -0.83717175544273    0.35679013138744   -1.40466277905631
O          -0.37697778643803    1.17044106101129    0.83111665957430
O          -0.95595361588774   -1.15309747555253    0.50641472889827
O          -2.64135799520100    0.52672265789158    0.21433658311265
H          -2.73359986782825    0.49330121378998    1.23536691929179
H           0.02846199669674   -1.50742924297832    0.26994037822090
O           0.95693564890056   -1.50333787832481   -2.68725316263065
H           0.02844462346956   -1.25033054903689   -2.64313623991420
H           1.42660630896090   -0.65111731481109   -2.80813190732665
O           1.35437030776707   -1.80247004404127   -0.12129423185598
H           1.28323181855966   -1.84205470576968   -1.11829032283079
H           1.85675995772836   -0.98934069843301    0.07214621783373
O           2.18221022033717    0.76146105984494    0.35478175936492
H           1.25129060496972    1.00930687469649    0.55536259875126
H           2.73125497717839    1.18676487910595    1.01565645397630
O           1.67068752869490    1.08329555666081   -2.40202722329408
H           0.72366939793641    1.13198662215164   -2.20797643055151
H           2.10561132058344    1.08888222201892   -1.53871267056821
N          -2.35860510990542    0.41486367195100    2.75340117745240
H          -2.86952750458411    0.90729407442238    3.47404065922297
H          -1.44606802048336    0.84115844553054    2.62704498117193
H          -2.23141329507203   -0.54889458609321    3.03250634126020
