    23
        -45.37184817  Gyration_radius:  2.26818218226 Dipole_moment: 3.137
 S           0.37270545477514   -0.12488888352859    1.73465610467563
O          -0.69408994549186    0.81229932371548    1.43233613470235
O           1.69953162822520    0.40455899589264    1.49312824110928
O           0.15525563490748   -1.40484897145161    1.06651961797626
O           0.30490999818713   -0.40521431437729    3.29258323258154
H           1.22190488530533   -0.37278262779540    3.54586901312650
H          -0.65450376632815   -1.46893791083158   -0.22235160941102
O           0.75380711966855   -0.10135144833113   -2.22393349074607
H           1.52681780457624   -0.52505248531274   -1.77686417186182
H           0.67167286231843    0.77788687368392   -1.78593186691197
O          -1.10629277202127   -1.33475748235033   -1.12634860694425
H          -0.34375331646063   -0.85443571204796   -1.70698332918445
H          -1.84450097708286   -0.57613171967509   -0.94566964266035
O           0.58944352541700    1.98875304232369   -0.57672076238614
H           1.48025687853415    2.07032477017502   -0.22460075829350
H           0.06148752197911    1.66441680020516    0.17859921320100
O           2.47450741656952   -1.16652105541417   -0.51216651273155
H           2.33310547819153   -0.53805073629983    0.22456325387020
H           2.05001056101399   -1.97789652856834   -0.22018538665795
N          -2.66373968889840    0.56797752950096   -0.52723856382479
H          -3.63343892803235    0.40414619125096   -0.29206478302986
H          -2.60691793021947    1.36106979057316   -1.15349050034279
H          -2.14817946513021    0.79943654866924    0.32629516373575
