    23
        -45.37184661  Gyration_radius:  2.26824410808 Dipole_moment: 3.128
 S          -0.96327760052391    0.92513974249129    1.17399713978840
O          -1.76625827789109   -0.24872001565622    1.45003335847272
O          -1.08147423283078    1.40738009595703   -0.19000244077872
O           0.43601001706932    0.74012964054616    1.54894258264340
O          -1.54046310713973    2.06516726061547    2.11056702335040
H          -2.03991795145357    1.57006381035419    2.75184328366565
H           1.48086470914984    0.45326795681238    0.47895764258584
O           2.03387750810766    0.15154307560714   -0.32288506206681
H           1.67017664251350   -0.84068517357474   -0.50587428932499
H           1.66600235552073    0.74304687389577   -1.13906537739831
O           0.15369083309568   -2.04106549471739    1.88625032543675
H          -0.64791570479358   -1.49123328909985    1.77260195195541
H           0.78189417149680   -1.46153895187448    2.32591391440911
O          -1.43367754607021   -0.99987931514366   -1.26173224332344
H          -1.37215873519870   -0.07216603691982   -0.96168817967443
H          -2.03596906640725   -1.41131748989814   -0.63550825613348
O           0.93528729486018   -2.05595477174697   -0.64604475608241
H           0.07702684085729   -1.77607841383711   -1.04216551335343
H           0.71113627039316   -2.27383748810601    0.29171712515006
N           0.91613848528230    1.52231780147201   -2.13400952432493
H           0.62551776420438    0.98311801014275   -2.93973732233379
H           1.30518378559836    2.40058496192379   -2.44979807268548
H           0.08830556415167    1.71071721074490   -1.56231330997953
