    23
        -45.37085695  Gyration_radius:  2.28131909672 Dipole_moment: 6.660
 S           0.65328188403115    0.12397256340398   -1.51662863564884
O           0.81286992498211    0.60616327145573   -2.85927780096199
O          -0.77405008075043    0.09348005197784   -1.10383914494784
O           1.29726438273289    1.19965221889878   -0.52627644715979
O           1.28839204021773   -1.12657112539719   -1.19121995016952
H           1.46266569784844   -2.06307244319750    0.24383360882200
H           0.88824988076859    2.02247777189500   -0.85176499430948
O          -1.30369056860323    0.93473104079624    1.35431532442780
H          -1.41793577562986    1.88307775945939    1.43091029262182
H          -1.11545138803152    0.75168960408759    0.40655881812451
O          -0.27088757355098    2.79437337350324   -1.94281813288776
H          -1.19817681575853    2.55558020076601   -1.87180451348568
H           0.11122870797602    2.13820972892693   -2.56309342303729
O           1.24962295657928    0.15312545895847    2.07939396965281
H           1.62915922630716    0.54941295611948    1.28397531070881
H           0.31741535564528    0.43137413150159    2.06924345874915
O           1.17555975635068   -2.32862331161041    1.14462552011091
H           1.35588602707880   -1.52711060862766    1.69153350824096
H          -0.24715645908005   -2.17632957700600    0.87329380504708
N          -1.26535386165736   -1.85997765006736    0.55103602180107
H          -1.09485810245584   -1.16091267485456   -0.23916983589284
H          -1.72719590903375   -1.35250495342595    1.30414181498177
H          -1.82683930580178   -2.64221779741014    0.23303143511807
