    23
        -45.35447705  Gyration_radius:  2.47252021172 Dipole_moment: 3.775
 S          -0.89597951732316    0.98740054135715    0.42480021502715
O          -0.78388888975100    1.51369188412934   -0.89350525359735
O           0.33560806869499    0.57553272216194    1.04352989917896
O          -1.87190997334777   -0.21477179470980    0.46222792627809
O          -1.61799034301103    2.03195442434224    1.30997269768898
H          -1.88064531458430    1.55799494336896    2.13348419732698
H          -1.24553035492456   -1.07771396853180    0.42818348756675
O           1.11309292154831    0.33949352636665   -2.50872921608441
H           1.88012548155046    0.52987726713579   -1.92519171660947
H           0.38395682025841    0.84818224226184   -2.12103629284049
O           0.48428735281385   -2.14808061403772   -2.04512064980559
H           0.78125524901090   -1.22030832298339   -2.27176736820645
H          -0.20029184830144   -2.36779893656282   -2.67841569111947
O          -0.20727983748177   -2.03460306538713    0.44891042432924
H           0.46594303539010   -1.46050524501115    0.83932578848512
H           0.07038818148851   -2.17584271802378   -0.50637501015725
O          -2.52729541467373    0.32042244285887    3.07054290077497
H          -3.44916807932649    0.43524752148675    3.31497276741426
H          -2.50212391342140   -0.27985293213129    2.31113824778446
N           2.84124692486335    0.89117465212717   -0.46398729725136
H           3.56027339198217    0.26661424296713   -0.12105248154719
H           2.05510332742632    0.84898158207935    0.18105981803227
H           3.21082272108644    1.83290961474422   -0.43296738268103
