    23
        -45.35447712  Gyration_radius:  2.47262438491 Dipole_moment: 3.779
 S          -0.05283098066196   -1.09305838857777    0.87264546467075
O          -0.97159251401481    0.00877243292122    0.76772970505051
O           1.28707687730123   -0.75480331034329    1.21575494930320
O          -0.10317626059185   -1.88229335219976   -0.45921844648857
O          -0.57402911295033   -2.13081796101978    1.89605031217145
H          -1.39764129057330   -2.50820237027292    1.50747890355017
H          -0.34931274996810   -1.15516306669170   -1.19977917198321
O          -2.38799738556361   -3.17959079837123    0.32600171401317
H          -1.76803576301137   -2.90246161272729   -0.36427462593352
H          -2.41674598324049   -4.13972803490357    0.31736598615422
O           1.49405957447901    1.21917390686472   -2.30589977869665
H           2.20416443366675    0.73127988553539   -2.72509734959906
H           1.81507451629894    1.43406830975850   -1.38338161163273
O          -0.74825590301262   -0.02999011965294   -1.95478893202252
H           0.09075090883800    0.47388051016803   -2.18230975634595
H          -1.15932643002721    0.45414471335806   -1.22548379684475
O           2.24971814887831    1.60030937508732    0.16031814674819
H           1.56508324716789    2.18152211048224    0.55848952452031
H           2.11431538802132    0.74078273700974    0.58875639555648
N           0.02581924503961    2.72734107782000    1.28122653420066
H          -0.44286209386473    1.82750732257344    1.20030476582497
H          -0.56093559655374    3.42546530095536    0.84185733235707
H           0.08667973432409    2.95186134221016    2.26625372541532
