    23
        -45.37890825  Gyration_radius:  2.28810717284 Dipole_moment: 2.689
 S          -0.26431427623464   -1.06033760049605    1.25657637980017
O           0.23058858129477    0.20601176043397    1.80484130303787
O           0.35831091414534   -1.34510241705427   -0.02387250802598
O          -1.70541842243821   -1.12257329312090    1.23715350714911
O           0.21603989397398   -2.19248561082970    2.25631058448283
H          -0.57191734592439   -2.34004473342666    2.76909268746109
H          -2.45517872675837   -0.19890527660492   -0.02110258623582
O          -1.00989494864319   -1.23385408698365   -2.34308804263326
H          -0.33381350416022   -0.87327326591329   -2.92108705112631
H          -0.55346774993228   -1.47585237053950   -1.51550590029697
O           1.58088295895544    0.62185482710227   -1.37471954393907
H           2.27076219153097    0.84236416125411   -0.72200602323484
H           1.22751651896681   -0.22495955953025   -1.03582708812052
O          -2.52456814578427    0.37457773858233   -0.81230071064901
H          -1.36750304316956    1.34256673365877   -0.52034991681848
H          -2.20029668383646   -0.19110448205800   -1.54333885945648
O           2.75058676789562    0.75995567209040    1.06068260251378
H           1.86831033977406    0.56375448080839    1.43605285608337
H           3.33587332401660    0.07601785364099    1.38875357915513
N          -0.44879471248584    1.80179786258096   -0.18455889579952
H          -0.22845587156448    1.35442108418705    0.73822286045262
H          -0.52487116402092    2.81009104733859   -0.10714192036719
H           0.34962310437991    1.50507945490522   -0.82278730345014
