    23
        -45.36019006  Gyration_radius:  2.37248086681 Dipole_moment: 2.306
 S           0.12319497803651    0.59093763495296   -1.12116620526339
O          -0.31829207180049    0.59809666679706   -2.48426374041883
O           1.51005110961281    0.24704765641266   -0.93967654985538
O          -0.74116522065707   -0.42134521827814   -0.30794396677997
O          -0.17702682695577    1.91271639836882   -0.43735251432533
H          -1.04985439579700    1.83894552238430    0.16836928325845
H          -0.25604754512118   -1.31256447527849   -0.38261027489352
O           0.77405863506403   -2.40790414701005   -0.72917176044088
H           0.61946651420054   -2.45825000083244   -1.69966837189228
H           1.56144562052778   -1.85831689152180   -0.62718656906905
O          -2.15771628204684    1.56047729002050    1.01688648355545
H          -1.66818672441510    1.08810872752135    1.78247642963080
H          -2.62742990083276    0.86730780970115    0.54509595119610
O           0.36895732917568   -1.85044250998445   -3.30416140941998
H           0.02277200260206   -0.95152880955318   -3.13648947677065
H           1.09508143846010   -1.74299494478170   -3.92173906319515
O           1.72973356158952    1.06252007676311    1.61490996050613
H           1.77879282626277    0.72053770087276    0.70507932584332
H           1.69899199104283    2.01726926027023    1.52436049065869
N          -0.76150331150683    0.26271627567167    2.79444145543922
H          -0.82474964073840    0.48005676180988    3.78070066103135
H           0.18441298015848    0.49204261434774    2.47840213478350
H          -0.88498709686785   -0.73543340865842    2.68070771643131
