    23
        -45.37434821  Gyration_radius:  2.42109011844 Dipole_moment: 2.260
 S           0.71543540447832    0.31237077859505   -0.43659591271495
O           0.01659196217427    0.85461937339665    0.73189012206827
O           0.08684094228140    0.72201675024325   -1.67677700792012
O           0.80768243020065   -1.14922938945670   -0.34479164369093
O           2.15507139452834    0.88632736089734   -0.43449324711130
H           2.52733854297844    0.72232078606964    0.47345480840773
H          -0.65109740319808   -1.60877611328957   -0.99475664091702
O           1.55552930637654   -1.90476037654088    2.04649793810398
H           1.86421219060834   -2.80628114918775    1.93814491605681
H           1.18394130469671   -1.64162232945752    1.17191813250897
O           3.15814786188968    0.22729919240610    1.88377517409462
H           2.55364012580380   -0.51025059330934    2.12687741610845
H           4.02325167749223   -0.16228926146333    1.73858005967727
O          -1.55717480811075   -1.61974846844907   -1.38202944492464
H          -2.27291423699693   -0.51412714949300   -0.42471650213371
H          -1.44772394537238   -1.19988282920172   -2.24029866026545
O          -2.07889635872156    2.20444547242165   -1.75100493112846
H          -1.81072325884846    3.10498466963314   -1.56179485687186
H          -1.23821418871741    1.69578351751311   -1.85732098914705
N          -2.41804075947198    0.37044228197388    0.13737220220353
H          -3.14081940002793    0.27931254588521    0.84193035322539
H          -2.59040641743140    1.15120647623378   -0.53813827010367
H          -1.44167234664952    0.58583849478652    0.55227700451980
