    23
        -45.37434830  Gyration_radius:  2.42157677957 Dipole_moment: 2.256
 S          -0.25500619417921    0.36287424184316   -0.77491035622564
O           0.22304619258917   -0.99163210695876   -0.48421480653325
O           0.84205226557818    1.28644251620954   -0.98622479962730
O          -1.14584298918878    0.83091581879920    0.29300851822027
O          -1.07123698510052    0.30364577270028   -2.09110633366126
H          -1.73368663723109   -0.43095769597664   -1.98480188167511
H          -0.05129310436863    1.44313942347610    1.38367298819876
O          -2.88354300125689   -1.00915866391273    0.95863850437523
H          -3.57793852500233   -0.54019069078999    1.42518560824093
H          -2.17856831900053   -0.34200803571918    0.78526758722043
O           0.77177663069264    1.70664808439198    1.85714129058359
H           1.63384547692374    0.33602287435399    1.68358531959977
H           1.17809597750643    2.35348910246651    1.27279478600399
O           3.36062199747041    0.56946077025625   -0.79684719016394
H           3.57819397133529    0.08938668519196   -1.59744136973525
H           2.46087242559002    0.94760850064833   -0.95225418110821
O          -2.93374326420827   -1.47699392419424   -1.67176299036299
H          -2.93561644029982   -1.49288911453116   -0.68779406372040
H          -3.77498524190869   -1.10266578012322   -1.94277175954720
N           2.05130979853297   -0.52654543705895    1.23517967875608
H           1.27500231312046   -0.88366992161481    0.57059784275701
H           2.34977951417888   -1.22042689618977    1.91087981828629
H           2.81686411827824   -0.21249551314760    0.59417781017811
