    23
        -45.36607947  Gyration_radius:  2.39011356275 Dipole_moment: 2.168
 S           0.28558025656009   -0.68065554394723    0.69585449038198
O          -0.40412571606521    0.41304357930977    1.34195508556972
O           1.71021966618146   -0.66258203651253    0.86364514793083
O          -0.06872055077235   -0.68712596685711   -0.79720741250828
O          -0.26163878239993   -2.01175764944717    1.19520312171236
H          -1.28634548615830   -2.01022258555387    1.12551449466362
H           0.46104982939874    0.07327744580058   -1.31053281748539
O           1.27995490912649    1.12403149419371   -1.84573922353808
H           2.16078189960391    0.68942828183564   -1.85063538657455
H           1.31705336319889    1.75338582016835   -1.08749751997645
O          -2.78693914531387   -1.85262525464341    1.07725534024520
H          -2.90760065828818   -1.02294418304915    0.52149681610038
H          -3.07143038536436   -1.62679850215068    1.96600860248319
O           3.41505683415271   -0.33597489525442   -1.18409081399576
H           2.92676911081928   -0.50156939308872   -0.35426022756307
H           3.63996215185538   -1.19666661235907   -1.54072340852372
O           1.39298037658893    2.24767012452324    0.56227979938595
H           2.21011193886907    1.90581198116933    0.93440377907198
H           0.68061452080642    1.73080061748031    0.97880702389722
N          -2.78330641138037    0.43682766744370   -0.22176988528185
H          -1.99049143874415    0.74720594267434    0.33684594446626
H          -3.47489546272385    1.17543303000785   -0.24208830683542
H          -2.44464081992527    0.29200663827154   -1.16472466362443
