    23
        -45.36287866  Gyration_radius:  2.43734648542 Dipole_moment: 6.432
 S          -0.42876154151110    0.46726010134121    1.18761293114074
O           0.58101775750098   -0.36122098147177    1.76434922655518
O          -1.34886838463116   -0.19962813388639    0.29837223437103
O           0.22524565786398    1.64254066471048    0.40811341671424
O          -1.20534392520404    1.20863313521011    2.27342528245125
H          -1.99241910173239    1.64442322348988    1.76407212420484
H           0.87982650286564    1.29183447206128   -0.28337069018735
O          -0.18482369884499   -1.18213040501324   -1.95575510885325
H           0.50528264970398   -0.51672023083524   -2.06321320707662
H          -0.72274271836151   -0.88673485464059   -1.20113751238165
O           1.16389846066304   -3.11580902433412   -0.65656037399171
H           0.65504266562662   -2.53555474620548   -1.26541067276392
H           0.55978941802643   -3.34769645918833    0.05097635335722
O           2.72321839258657   -1.16410922937561    0.29700141287263
H           2.33909422720638   -1.99252271187406   -0.07321557829733
H           2.14034292232349   -0.93850421254472    1.04091871787134
O           1.87865898164861    0.66042767804428   -1.27258728899822
H           2.29160191072786   -0.07984479434155   -0.70075353144568
H           2.59466311753525    1.26124305360145   -1.48804852702546
N          -3.02408806882530    2.02730579937234    0.68247640402091
H          -2.83805207467883    1.20395826351935    0.11632222784314
H          -2.78696357328067    2.85507866874298    0.15249280888860
H          -4.00561958725600    2.05777072358578    0.92391933077405
