    23
        -45.36596480  Gyration_radius:  2.40429981457 Dipole_moment: 1.813
 S          -0.39492518438512    0.35255782098363    1.48451654244737
O          -0.12683000023314    1.33192745359394    0.45929446627580
O           0.77579197503890   -0.15169205068700    2.14570127154152
O          -1.20613095290163   -0.80017068781605    0.87339503624479
O          -1.37066886345471    0.93398017035356    2.50982777861392
H          -2.12018892421216    1.32033094109096    1.91696634580825
H          -0.63027414301178   -1.42171738404956    0.25157303086821
O           0.37402032485866   -0.70265337941144   -2.82320906389865
H           0.89380363931451   -1.00104977268985   -3.57107320964109
H           0.91569480359100   -0.01163145043539   -2.36622791118732
O           0.26176290617615   -2.17290180400746   -0.61975290022112
H           0.19880246093007   -1.71621866655070   -1.49532128520875
H           1.15717653958167   -1.97655359452618   -0.28397233950732
O           2.55271869829724   -1.18202279415457    0.50212146504167
H           1.97737559295694   -0.76699459642583    1.18413339666561
H           3.24157179662533   -1.64850927436227    0.97897101214820
O           1.87417377487113    0.87579699028058   -1.31246283280092
H           1.18851382752411    1.21865973920987   -0.71214730451005
H           2.37573744883120    0.24005764203753   -0.78383173608184
N          -2.91844003003509    1.76830397806078    0.65876087480360
H          -3.48832726161553    2.60371107215218    0.64050085248692
H          -3.44472208941309    0.99719739480211    0.26983872371672
H          -2.08663634931610    1.90959224254835    0.09239779638652
