    23
        -45.36092315  Gyration_radius:  2.5081237083 Dipole_moment: 4.629
 S           1.93983401543769   -1.67453356934491   -0.82542584221321
O           0.77358062770163   -2.54163465129362   -0.76716473394063
O           2.36501468131189   -1.18765730470503    0.46270821658094
O           1.73001634223658   -0.59030299764858   -1.79675652772957
O           3.11960686867130   -2.54337185430531   -1.41674851446026
H           2.76868213140327   -2.79890010820378   -2.26401801017326
H           1.14351292622261    0.61526285732248   -1.32950480278815
O          -1.20677327967723   -1.35098242576057    0.35134265309519
H          -0.46377154807178   -1.82956149075163   -0.11430854013998
H          -1.76805949091531   -2.04089183611958    0.70845807883133
O          -1.82944956592626    0.95097002999243   -0.97227131321212
H          -1.78498005881761    0.02912339234756   -0.65791112575467
H          -2.04536942572042    1.48579799433737   -0.16738859785233
O           0.63120625079745    1.41249540111868   -0.85650290490968
H          -0.39291491307739    1.28169811752773   -1.07390968639005
H           0.67623821574370    1.16137671099885    0.14306705257403
O           0.55960029497618    0.39618326748843    1.47210282898749
H          -0.18228498941070   -0.21400897091792    1.29461219752129
H           1.35754123758183   -0.16247264191469    1.32086822045651
N          -1.89775819833636    2.28049587918293    1.38063252083519
H          -2.66834612705237    2.13862279749755    2.02141077500616
H          -1.76460288884322    3.27831362721482    1.27302653007510
H          -1.06052310623321    1.90397780593842    1.81368153557536
