    23
        -45.36802326  Gyration_radius:  2.32588693487 Dipole_moment: 7.575
 S          -0.25737083388157    1.42376592304463    1.09688031903940
O          -0.69667892793734    1.59903811702210    2.44677852898061
O          -1.30600408160805    0.94122590786325    0.19295780906078
O           0.93147944216655    0.56491487137996    0.96684391578171
O           0.17251136771646    2.83727096651886    0.54575272684444
H           0.54218625393054    2.65976240945635   -0.32751282195689
H           0.70908784676175   -1.11415441301483    1.25648939443131
O          -1.06860452964791   -1.33498113405583   -0.78235564997441
H          -0.38302361197949   -1.19255471295871   -1.57489368767930
H          -1.25991087153262   -0.37813876124976   -0.42162910216523
O           1.71804909383997    1.43487151468106   -1.30780501010287
H           1.51000848193411    1.01157186431946   -0.43366209273262
H           2.62584844200075    1.73875066221160   -1.24514276413552
O          -1.74695774588202   -0.83830550666813    2.65403312488108
H          -1.37321392795203    0.05972194458177    2.75340435775312
H          -2.57859127492121   -0.71877420501269    2.19091715001452
O           0.21974758855779   -1.96488374234096    1.26009549897054
H          -0.47972621201652   -1.81875587824741    1.93435867650894
H          -0.53492139054083   -1.75665553179753    0.02690863944971
N           0.62931455897010   -0.87123544648710   -2.63641608068636
H           1.35377138684443   -1.57133306875454   -2.73119509371161
H           1.05898368820662    0.00027254708067   -2.31989134896081
H           0.21401526697350   -0.71139432757914   -3.54491647956648
