    23
        -45.36802321  Gyration_radius:  2.32597315653 Dipole_moment: 7.574
 S          -0.83908682783908    0.85691509453931    1.36330262799164
O          -1.31193676208543    0.95160581608270   -0.02124156490540
O          -0.69175218862376    2.12456003108317    2.00926224520426
O           0.37392864554533    0.02360658867559    1.40816498861873
O          -1.94453037099773    0.04742992455286    2.14386860721083
H          -1.94788013322369   -0.82538828869899    1.73288324184519
H           1.69275180522956    0.52334349329559    0.42688954865311
O           2.12250564149015    0.92879674900103   -0.35680585788311
H           1.91387784517182    1.88378787396214   -0.25837704143013
H           1.12869913707983    0.52769380419439   -1.34919813691758
O           0.78637556084177    3.19027986943980    0.06858856535148
H           0.11068947507533    3.40968699133951   -0.57622260149365
H           0.30047829079978    2.93455118601127    0.87764815736316
O           0.23314220129115    0.26708086263982   -1.84689952066455
H          -0.47983802399489    0.58118651117836   -1.15753358502283
H           0.16420308026925   -0.78814831898968   -1.84463532581473
O          -0.76910636985947   -2.23886994967794    1.05593917936955
H          -0.21355978294829   -1.42612959290273    1.18789725301082
H          -0.53787214762860   -2.83618515369357    1.77014062961858
N           0.01526082935960   -2.27647213634129   -1.71045054739191
H          -0.34100804109094   -2.40956110994274   -0.76195155835334
H           0.88769275983594   -2.78119330666128   -1.80041461424348
H          -0.65303463362258   -2.66857695913600   -2.36085469010461
