    23
        -45.36491609  Gyration_radius:  2.32644548849 Dipole_moment: 5.040
 S          -1.50780766284424    1.12880175516352   -0.31874763496154
O          -0.11475435047445    1.54635654902781   -0.27371268965246
O          -2.39325145494757    1.84896085736351    0.52064713050497
O          -1.57512299733321   -0.36974357629444   -0.00053678620392
O          -1.98815422973839    1.21929674153335   -1.78443675280595
H          -1.43880528846254    0.58241663819004   -2.32380512448959
H          -0.67438175332535   -0.89001348490272   -0.11042657157712
O          -0.40746101491458   -0.53124485301985   -2.87538766120145
H          -0.52632831431968   -1.37053714968733   -2.42029119902816
H           0.48816816992034   -0.22060200667720   -2.64045729396901
O          -0.38241280555959    1.18624531299882    2.41418782171127
H          -0.05001496085304    1.50028296254234    1.56301361380301
H          -1.32124291190276    1.39440703628069    2.39363304254784
O           1.80640226585967    0.45255645661173   -1.64336071608663
H           1.15638913071155    0.97451570203446   -1.11462273637482
H           2.49013424356606    1.06404138322636   -1.92047211510797
O           0.59550372047424   -1.60692572537992   -0.21099476910113
H           1.25047489862973   -1.01897453066189   -0.61547827638759
H           0.80506831511789   -1.62343871890113    0.77749167347578
N           0.95877276881836   -1.38665171724587    2.37927888003878
H           0.47152301221656   -2.09123932246336    2.91837234395996
H           0.46863195036753   -0.50076266903441    2.51910589487266
H           1.88866926890945   -1.28774763073176    2.76699992598204
