    23
        -45.36491608  Gyration_radius:  2.32650211247 Dipole_moment: 5.040
 S           1.13955986317124    1.35752188998365   -0.71489808451531
O           1.47705927950775    0.42224290772735    0.34729990524645
O           1.34564624319893    2.72712981541931   -0.41672643507038
O          -0.31772972709579    1.11729991939238   -1.12724749786962
O           1.95005665301797    0.96857982257703   -1.97133732778847
H           1.66730438369666    0.04943857225452   -2.24239889889362
H          -0.71493718058009    0.19221345089026   -0.84391161874131
O           0.97724302357658   -1.40129280918904   -2.40770870317505
H           1.12724198590319   -1.87759265154111   -1.56835356059893
H           0.02304051150430   -1.32308650400085   -2.50295078406928
O          -0.17766177752594    1.97179513754242    1.85951406149820
H           0.51919092346447    1.34980051703158    1.61220512282866
H           0.01354110760245    2.76007488927653    1.34260217647162
O           1.20944956122012   -2.15988703821477    0.19182939658466
H           1.87567663644586   -2.65472192318330    0.67085921185161
H           1.39880513657710   -1.20376079195374    0.34831156540563
O          -1.28766641739519   -1.07793138992397   -0.40100728184427
H          -1.79614631870055   -0.71278780997771    0.39226864258627
H          -0.57734248641437   -1.62637720811262   -0.03637974510392
N          -2.39080307063587    0.10530766677476    1.66624662538099
H          -1.69251576268162    0.83926110466064    1.80170363030975
H          -2.49881736968379   -0.38211965255465    2.54692546159019
H          -3.27019519815732    0.55889207522766    1.45315412783768
