    23
        -45.36638228  Gyration_radius:  2.37539240993 Dipole_moment: 7.402
 S          -0.31132670222304    1.10128799235827    0.29175169329580
O           0.97139022337264    1.32820241192960   -0.29990322445293
O          -0.29575128786537    0.21392490239731    1.43932322441515
O          -1.29163214637401    0.53340243794783   -0.73907360644295
O          -0.95585149963843    2.43162410743882    0.68635114139896
H          -1.83138026696336    2.14422499646250    1.13658573125169
H          -0.87936965964910   -0.33951945348000   -1.20700919722491
O           1.86801334601308   -0.12750072717995   -2.62483581231681
H           1.58754083421615    0.74862078168885   -2.33883445211831
H           2.52712510420547   -0.39465318141107   -1.94968887783231
O          -0.18429081941507   -1.46243043920870   -1.71012595759810
H           0.21616366624219   -1.87864459789513   -0.92436046258369
H           0.57579552809296   -1.04276670240089   -2.20699902529195
O           0.89558175536897   -2.02943808732006    0.73882298759856
H           0.48456665119054   -1.20883110924703    1.09385618630308
H           0.76520115739298   -2.71288284529586    1.39834939163970
O           3.06846314056951   -0.51847898744333   -0.24024492770867
H           2.54088181321596   -1.22975910608826    0.14744329312556
H           2.56908481967229    0.29147190193723   -0.06285469499371
N          -2.94933775770895    1.24024124011745    1.75712819335960
H          -3.50845924208944    1.52147450497303    2.55157085474703
H          -2.30628591811911    0.50484332248891    2.03288527875920
H          -3.55612272952270    0.88558663724664    1.02986229267372
