    23
        -45.36197585  Gyration_radius:  2.36607811994 Dipole_moment: 5.677
 S          -0.60485308491733   -1.74777984973620   -0.03875614966709
O           0.12538338498740   -0.98712077657173    0.96995041049443
O          -0.02918137531838   -2.99446067810896   -0.39343786992740
O          -0.80099268543401   -0.87724573075700   -1.26980880242478
O          -2.03204830907885   -1.99130398198355    0.51159848903267
H          -2.43750350187323   -1.12001496327758    0.76722874438827
H          -0.65971847082480    0.17341547149148   -1.14489531000509
O          -2.95343859872443    0.32116170120712    1.31344977106053
H          -2.17094133295235    0.86649463958039    1.51937318432307
H          -3.45665769018083    0.22858636224060    2.12518718420082
O           2.31073656241679   -1.42771802303811   -0.58352821109618
H           1.73374284281480   -1.24883090025722    0.17148852241568
H           1.95954265762748   -2.24164535181129   -0.95710520715858
O          -0.34863104994842    1.54599712501857   -0.97013522257209
H           0.62765652456561    1.53964457762734   -1.22628631406746
H          -0.39220789092444    1.72239316360107   -0.01740128765134
O          -0.49276385755678    1.38003370110990    1.80256549836640
H           0.03288224312945    1.65364211413855    2.55583704582031
H          -0.18816004068931    0.46883088529656    1.56073327066982
N           2.19345638985837    1.27555699631904   -1.60458441643730
H           2.33501168600480    0.30326707184404   -1.32311597632035
H           2.91421942323153    1.83222541455410   -1.16268525051904
H           2.33446618359297    1.32487101149220   -2.60567211290449
