    23
        -45.36487476  Gyration_radius:  2.30474196575 Dipole_moment: 2.589
 S          -0.07937908757645   -0.90381193726454    1.07036183521856
O           1.24215925987043   -1.40813323463065    0.79133534677986
O          -0.88000427601013   -0.76259519244004   -0.14329678724568
O          -0.03264985290120    0.39248428906466    1.78141765440743
O          -0.79374137933732   -1.91375234614687    2.01194429370412
H          -1.58510521237413   -1.42243348023446    2.31615607836557
H           0.61637830086717    1.45530944903904    0.93160765180144
O           2.38135269059009    0.25825355704080   -0.85218774673801
H           1.88591822132263   -0.08504253048748   -1.64583558998381
H           2.18454232289965   -0.42798445996386   -0.16610006948400
O           0.96796339164820    2.01201829485629    0.14178508417022
H           1.69204970835538    1.30612233869771   -0.34729364804900
H           0.15886198615824    2.04910077153854   -0.47189142964714
O          -1.13431030939565    1.58823629712923   -1.24510668950652
H          -1.06937189732670    1.42398619960044   -2.18751119706246
H          -1.20294897201212    0.70065785460231   -0.81125935773942
O          -2.43351979842999    0.00079285218300    2.78011163836384
H          -2.47815978518569    0.18672408641665    3.72080912777692
H          -1.62479497146571    0.43661071397764    2.44633381640062
N           0.73165202884440   -1.01472599483863   -2.49062680243445
H           0.06856199557017   -1.08754965625827   -1.71527532081561
H           1.17823163084291   -1.92031575198838   -2.57212892895724
H           0.20631400502859   -0.86395211997700   -3.34334895930473
