    23
        -45.35967738  Gyration_radius:  2.48396319708 Dipole_moment: 6.133
 S           0.29929797696818   -0.59068676822956   -0.82077854921290
O           1.42462164513376   -1.44715150718745   -1.01670152883866
O           0.58501647431960    0.82014652843628   -0.86187980956240
O          -0.38525891277629   -0.89681760789754    0.53906955028064
O          -0.79063951092516   -0.95434190440057   -1.83037164000302
H          -1.58526096695840   -0.32932748383824   -1.71614464238916
H           0.16878067967404   -0.35294502250074    1.22571000397890
O           1.10502898160628    0.52219456022633    1.96480271050782
H           1.97781942157145    0.08164359741550    1.73716608818586
H           1.09433971944045    1.34084868811791    1.45760897282257
O           3.19476075706149    1.49108327161155   -0.85338100856663
H           3.54200488422404    1.31782876158851   -1.72974243249831
H           2.22943358001996    1.35896534447785   -0.91489989441091
O           3.18838977599993   -0.59037724886314    0.88720030166465
H           2.72006773073833   -1.14887725594078    0.24545890847663
H           3.48243645124341    0.18250349330966    0.36722962224149
O          -2.88110426322194    0.45526660691381   -1.46058691925923
H          -3.09079048842768    0.23954219231088   -0.50669552998884
H          -3.58057340959985    0.07298768850555   -1.99538297272543
N          -3.22800209710338   -0.30037096141652    1.06944787828644
H          -3.88993901831522   -1.01949133192400    1.33337042772684
H          -3.28749863077100    0.44361939137025    1.75327430050390
H          -2.29293078984008   -0.69624302231423    1.12622615285840
