    23
        -45.36440543  Gyration_radius:  2.44961695842 Dipole_moment: 5.995
 S          -0.27011482806424    1.28112926111404    0.63758929293213
O           0.96365853519238    1.70436535456415    0.06024554756292
O          -0.14045311588870    0.23242037650676    1.63392696296341
O          -1.25954619628808    0.79543711036371   -0.43357089494484
O          -1.00995224169881    2.47373739828544    1.25118279652223
H          -1.84233345025982    2.04743394943758    1.66559654247107
H          -0.96122787850799   -0.11092177296886   -0.87131962570664
O           1.34066893738059   -0.64344882323167   -3.18594430602322
H           1.83816791691350   -1.27160960534129   -3.71143053023586
H           1.96021011669396   -0.30767823845034   -2.49179862778071
O          -0.44529276886761   -1.37588766597250   -1.38315951184467
H           0.10693558897167   -1.11776863344093   -2.16412431653533
H           0.18911303021570   -1.67815566525739   -0.70823003066725
O           1.35990906366378   -1.69741602278901    0.66598492932964
H           0.86692319846416   -0.97250417805922    1.11452149435606
H           1.53105764979007   -2.36463576533438    1.33292154239289
O           2.78923430218018    0.01563923617108   -1.06144780816685
H           2.31590024734611    0.79582192903851   -0.72897045711238
H           2.54703552233497   -0.69408175625857   -0.44975135970177
N          -2.86178226320424    0.94863086302734    2.15487420758288
H          -2.14363418401903    0.24538814406849    2.29709939182496
H          -3.45001918360025    0.65804817593242    1.38514034975953
H          -3.42445799874666    1.03605633860001    2.99066442100588
