    23
        -45.36638235  Gyration_radius:  2.37497782079 Dipole_moment: 7.405
 S          -0.70963742391635    0.93816146466542    0.11539362772383
O           0.23445562572256    1.42846493321958   -0.84130656392588
O          -0.12772702147201    0.53105928648838    1.38037805516148
O          -1.49354639777688   -0.24792773110020   -0.45462687221067
O          -1.79847057930773    1.98280844663241    0.36894456312250
H          -2.37802923608913    1.54598387178758    1.09360698919025
H          -0.82199254812901   -1.00337525135368   -0.81388112521169
O           1.29822579014157   -0.23856013532136   -2.94041818617090
H           0.71370720099988    0.51149404204256   -2.78589997160609
H           2.10579535570894   -0.01504219301274   -2.43122768297310
O           0.20361233410727   -1.88291359875025   -1.22886041642944
H           0.61676342179167   -1.38909981123949   -1.99442397390984
H           0.86315628512059   -1.85055718454576   -0.51126845094918
O           1.79231937107549   -1.20621703720837    0.89311111553504
H           2.07872728144519   -1.64273889838772    1.69715998628386
H           1.12701594240056   -0.53091629160073    1.15724008707189
O           2.90787061738218    0.61597567742271   -0.94996042846325
H           2.14108818475073    1.19341463559618   -0.82610975680745
H           2.80928057656565   -0.08004286254888   -0.28631966002766
N          -2.87658509580950    0.53359842116248    2.17932362480211
H          -3.37384266909390    0.81752758844498    3.01294995640791
H          -1.94264990972983    0.22159462829197    2.42588545137784
H          -3.36953711588312   -0.23269200069484    1.74030963197084
