    23
        -45.37605358  Gyration_radius:  2.36785699933 Dipole_moment: 6.078
 S           1.16747688495745    0.14253320005609    0.71282814432763
O           1.50542339587409    0.21336715494393   -0.68933714319525
O           0.64465641652922   -1.15660626791964    1.09779901615867
O           0.19749579102241    1.20512563501481    1.07161744091669
O           2.46423627460844    0.42239389535408    1.53193726101465
H           2.13733456276778    0.53796316013848    2.44557827543707
H          -0.94282120152212    1.05050884170700    0.03206944525413
O          -0.08988670354163    0.80696231416808   -2.83183374848163
H          -0.02753446442928   -0.16149643481385   -2.98249115902868
H           0.70791250010270    0.98606421801241   -2.30898519489523
O          -1.53379670915785   -1.85829682167161   -0.06452837015431
H          -0.68005502766020   -1.65328831048077    0.41409652404833
H          -2.01523318264432   -2.45846380001138    0.50678266516178
O           0.95409813892320    1.14838855278272    3.58900266811486
H           1.13711132019711    2.03839830735285    3.89860163158460
H           0.43946984607530    1.24091823235177    2.76193470763559
O           0.34503072643685   -1.75650765281526   -2.23460185889523
H           0.96486615017827   -1.28914009739455   -1.64950169754000
H          -0.34017440245301   -2.10732065211546   -1.65385388499357
N          -1.63014647316533    0.75166573393562   -0.72583706291593
H          -2.47293395546400    1.31582121987326   -0.71203712681044
H          -1.83300878850853   -0.25452081487574   -0.54636637165239
H          -1.09952108914258    0.83553040640236   -1.66287418109382
