    23
        -45.37605359  Gyration_radius:  2.36769623325 Dipole_moment: 6.084
 S           0.40116220887578   -0.51516897998747    1.21050349201434
O           1.48442793386384    0.35655307991639    0.79107232780534
O           0.20305158256501   -1.62846733227599    0.31239225550565
O          -0.84986213669431    0.26694317886840    1.35818186264028
O           0.73999293865846   -1.09143870490295    2.61902612823598
H           0.68266831051947   -0.31170223049991    3.20525135400614
H          -1.28930455618615    0.56711841680885   -0.09838839291562
O           1.16541275107978    1.49753593151330   -1.48600093946503
H           1.65086043814547    2.32375890942434   -1.49386538159848
H           1.35892082219550    1.07682424326187   -0.59969263071029
O          -1.27755189896725   -1.76346623459024   -1.98428514450451
H          -1.07157916721839   -2.10772454280929   -1.10048552607091
H          -0.39138056456813   -1.72764352539368   -2.40599488499376
O           1.34004243991417   -1.28504740921643   -2.17892618984691
H           1.22896461075913   -1.50567738647743   -1.23878961543939
H           1.52845304608419   -0.33960677520860   -2.19963722276857
O          -0.08621906036919    1.18648655581877    3.69990467140944
H          -0.49761645784753    1.07914667309507    2.81862920068791
H          -0.78695340563593    1.06881586582210    4.34534679114191
N          -1.38800830777543    0.70706487315782   -1.15044945483084
H          -0.50031164000908    1.15446400194309   -1.46303295870988
H          -2.19796677706975    1.27288223796543   -1.37973848970204
H          -1.44720309031955   -0.28165085622880   -1.58102126189116
