    23
        -45.37056013  Gyration_radius:  2.26804002677 Dipole_moment: 5.811
 S           1.28862577394241    0.91625880378842    0.61072100138398
O          -0.09972749762264    1.33963963751899    0.25255691194390
O           2.17057773854360    2.03246028185668    0.73501673680363
O           1.74772644989429    0.06729184027078   -0.66547705310163
O           1.24191791393561   -0.02517728065111    1.69957186744505
H           0.47581091119690   -1.54383763302514    1.93504317897420
H           1.77604955335403    0.76768154255701   -1.34427946843098
O           0.19469954125252   -2.25524896304687   -0.85406974537679
H           0.98147152952108   -1.69348472009938   -0.83067804332458
H          -0.50209599420607   -1.68683110767827   -1.22402388531826
O          -1.41933708930211   -0.11468301951788   -1.55808689975389
H          -0.88715879958227    0.48485220730148   -0.99280350567969
H          -1.31435684321761    0.20323225136610   -2.45619196877128
O          -0.24428681281754   -2.18922796798547    1.76029189908320
H          -1.26464768334608   -1.17720392805154    1.56333068813980
H          -0.07663430319577   -2.48336587056756    0.83267879786668
O           1.27352779358191    2.40871231060455   -1.79847248236512
H           0.58824105590466    2.34188316992670   -1.11433411968553
H           1.99096513557437    2.88168148162670   -1.36291878023247
N          -1.87485802152827   -0.28331945801051    1.28764199102887
H          -1.16022512389160    0.45637534856602    1.01235289020912
H          -2.45548766773643    0.03692792011235    2.05482906647691
H          -2.43079756019975   -0.48461684682284    0.45730092269664
