    23
        -45.37184472  Gyration_radius:  2.26831185423 Dipole_moment: 3.127
 S           0.70142211850730    1.57009330635966   -0.45107761230250
O           1.35251752118174    1.65848244674973    0.83999708042728
O          -0.74800872188476    1.57525676301499   -0.37903019449629
O           1.18736314837929    0.43986169835398   -1.23872854529944
O           1.11994213986801    2.88388201221688   -1.23125719285973
H           1.89937877863842    3.16345249174048   -0.76165334195249
H           0.34953436011897   -0.82620767181808   -1.34626332739182
O          -0.87210289160375    0.30149902425230    1.95159353241976
H          -0.16706407804373    0.72591239420193    2.44860845392025
H          -0.93357733531733    0.82379636095557    1.12836379738264
O          -0.25721803755215   -1.63721801758680   -1.22642817345914
H          -1.25084234241092   -1.23271135621401   -1.23901221947686
H          -0.08009610719972   -1.92184674437718   -0.20802143112179
O           2.50932035093507   -0.73656180417640    0.95227138284929
H           2.16261106103460    0.17468669784398    1.03790111116614
H           2.73385945683978   -0.82158441834162    0.02160342642659
O           0.20062433830550   -2.01667723611954    1.18855171413992
H           1.14085866678895   -1.71513931299914    1.23312910142078
H          -0.31128565442167   -1.27599963888430    1.58996228581432
N          -2.49905884624906   -0.46569684643045   -1.12176130849238
H          -3.09468562540221   -0.38938826258733   -1.93532508497704
H          -2.07867866712057    0.44752364686696   -0.92969862477934
H          -3.06481364339389   -0.72541553303289   -0.32372484935463
