    23
        -45.37184125  Gyration_radius:  2.26819233666 Dipole_moment: 3.118
 S          -0.85707904400484    0.09297543170202   -1.55456337036369
O          -1.63347232717162    0.57425394148206   -0.42757154761118
O          -0.82021057349815   -1.35048198230095   -1.66914409465563
O           0.48131355710905    0.67965094867833   -1.56586864991438
O          -1.59212469392444    0.61024567767957   -2.85888211584020
H          -1.43707124214169   -0.09468697255208   -3.47928126961214
H           1.11055913654742    1.14057564573618   -0.25961956663269
O           1.75742284351363   -1.80312272339193   -1.18548753983111
H           2.11480104945488   -1.02307421799497   -1.61871200111674
H           0.80209268771732   -1.78483787389461   -1.39807352840864
O          -1.06679505250140   -1.49091849733620    1.14937374053673
H          -1.14021049183085   -2.23214096052647    0.54156679661336
H          -1.38330603180140   -0.72467399486290    0.63281193881139
O           1.56149631820688   -1.10303805105509    1.36273065403948
H           0.60391159973090   -1.30902774824983    1.47531501029163
H           1.79807928315665   -1.51125929920955    0.49415211587316
O           1.44425670036687    1.28899384867799    0.69287739971650
H           0.59004635780644    1.66260244579462    1.22235121043174
H           1.58821749932824    0.29020214661344    1.05661869085177
N          -0.72365002058466    1.99932868132795    1.79197727870112
H          -1.29868779100801    1.62968206580730    1.03039776999621
H          -0.95147557389542    2.97432409181770    1.93312947803861
H          -0.94811419057430    1.48442741605747    2.63390159008453
