    23
        -45.36427712  Gyration_radius:  2.28842796446 Dipole_moment: 3.487
 S          -1.45660882140616   -0.32429874553457   -0.54570633722931
O          -1.94440398928430   -1.58071413901316   -1.02189061725165
O          -0.35750538309388    0.23059528067357   -1.30103102285611
O          -0.98520507090771   -0.48364462290540    0.93704953600165
O          -2.57347397578822    0.69084525804346   -0.41591411319909
H          -2.10215203256213    1.62094702515704   -0.33514665004529
H          -0.21671711869316   -1.13018330619987    0.95680424629210
O           0.93233603741255   -2.20205544953130    0.74794809379902
H           0.68760380029098   -3.03613856021285    1.15512800898465
H           0.89121059922616   -2.35100995702049   -0.23490110666215
O           0.11456893391008    2.01361873372451    1.89261599795772
H           0.91627717444050    1.62846038065973    1.45773030688305
H          -0.42039222756360    1.25481684352116    2.14404711735727
O           0.46633041347576   -2.39488030890034   -1.83058788272943
H           0.68057440686320   -1.53069282906594   -2.19707876561699
H          -0.50078486575468   -2.36925110742714   -1.71379605949624
O          -1.15349224269531    2.73778905502005   -0.27136753284392
H          -0.52310411903124    2.43978604664657   -0.93647471326888
H          -0.69306946917152    2.62298555022600    0.61074125807466
N           1.95604908804715    0.71355136272748    0.41329327919430
H           1.30716846068890    0.56241598393596   -0.35581344825282
H           2.15709286014274   -0.19587043473963    0.81212286160420
H           2.81769756141157    1.08292792027106    0.03222752335497
