    23
        -45.36462735  Gyration_radius:  2.41673847751 Dipole_moment: 3.582
 S          -0.29016417961327    1.01819080754552    0.30594142721307
O           0.22436059632385    0.33612196501413    1.46417457844776
O          -1.60974510967646    0.59149862406524   -0.09946811785740
O           0.66044303326972    0.87909239175072   -0.87217042352767
O          -0.30874162284381    2.53069791187914    0.58167118769666
H          -0.74038483719660    2.91404481105637   -0.25775832824213
H           1.27101923404933   -0.03871392214776   -0.88011245621244
O          -1.65836778960057   -1.71794630697628    1.25111599846089
H          -1.12960795552046   -1.35856076221638    1.97001257307641
H          -1.85854369126704   -0.93976148943838    0.69848909287385
O           0.09625141652393   -2.97269636475766   -0.30676596497911
H          -0.56647614978413   -2.57553633853273    0.30915301701860
H          -0.40447987167386   -3.33355209727818   -1.03961322802312
O           1.98699437649521   -1.19285341441324   -0.80594728488921
H           2.43909398211682   -1.09996758498067    0.06742077921601
H           1.31848156238047   -1.91357105614383   -0.67972174521577
O           2.63187214172146   -0.81106885763363    1.73786658883199
H           1.81243770720254   -0.28093094777899    1.77896455627109
H           2.48998704958848   -1.57208711833954    2.30460690624493
N          -1.47226815390206    2.96193171050929   -1.66535768669659
H          -1.92370792447505    2.06383165097711   -1.51711020682597
H          -0.80266891199834    2.86223635238391   -2.41684227627401
H          -2.16578489211847    3.64960001547079   -1.92854898658979
