    23
        -45.36690638  Gyration_radius:  2.38061916689 Dipole_moment: 1.646
 S          -0.05484657595613   -0.68761182922470   -1.12213660554344
O           0.28783575715613   -1.31512921524202    0.13571564270475
O           1.04805035527515   -0.56585045934755   -2.02788086788921
O          -0.66639867236506    0.69562058071000   -0.82853606638982
O          -1.20566079426097   -1.42331179363968   -1.78995595955432
H          -2.06201092373417   -1.15490389765138   -1.28075564217548
H           0.05028302025109    1.34055701314781   -0.38993787969013
O          -3.15483889996141   -0.56907232692297   -0.44168212351474
H          -3.01943529764146    0.37301513103182   -0.57952949630218
H          -2.83068650467507   -0.75970703780501    0.49102021101282
O           2.91785299308412    1.26697982349483   -1.56553471403222
H           3.13403829117934    1.69064326430715   -2.39797237026258
H           2.33719626746615    0.51040729683911   -1.78902816705405
O           1.84738873133163    0.07441811437164    1.79193363025019
H           1.29971512895359   -0.53993642850071    1.26247550703091
H           2.75997690277614   -0.15886445058264    1.60924502939209
O           1.11704872503118    2.08491566912674    0.21345042581232
H           1.85221656617535    1.99124031860209   -0.43426128405236
H           1.38085663796748    1.51203555254232    0.97079591461444
N          -1.95692486944544   -1.02974994466597    1.86269800259730
H          -1.07757144382917   -1.25241219204500    1.39603458437205
H          -2.22248455467466   -1.82873019081285    2.42408671470588
H          -1.78160084011645   -0.25455300773703    2.48975552397258
