    23
        -45.37171162  Gyration_radius:  2.32197162231 Dipole_moment: 5.358
 S           0.46211911596829    2.04923656417360   -0.34241183451560
O           1.83664947034400    1.57680951830752   -0.33065402366684
O          -0.33549870948459    1.39707684355474    0.69113091769745
O          -0.14145115213049    1.98839513856870   -1.65478639833873
O           0.49578628981114    3.58492404226456    0.05053541005214
H           0.67681226481998    3.97591483230806   -0.79721705002959
H          -0.29081813537200    0.34595219952604   -2.12372417027341
O          -2.21506484373417   -0.20374990949030   -0.21659495182790
H          -1.80732153140276   -1.25388389239652    0.67371309148415
H          -1.69332455419384    0.55385153693562    0.13557823687502
O           0.82015683200868   -0.65115961993031    1.87741271015396
H           1.42702098706464   -0.89939601616939    1.15683457838630
H           0.46561666813418    0.22417571333982    1.59284792256275
O          -0.38794784966164   -0.62611080699648   -2.05838573320721
H          -1.73046500994949   -0.43170440425482   -1.05014285175984
H           0.42586277692346   -0.93015959087110   -1.62755105412682
O           1.96604956495683   -0.97111529967602   -0.56999911363981
H           2.82127168709600   -1.21047081046021   -0.93059111830211
H           1.96644822572690    0.02640912908738   -0.51611764818767
N          -1.32496116529385   -1.99887927378875    1.35882271948329
H          -1.12359087419924   -2.85738840217108    0.85744533557264
H          -1.91283009057436   -2.18401326494706    2.16380275042183
H          -0.40051995688094   -1.50471423700105    1.66005225520903
