    23
        -45.37875842  Gyration_radius:  2.31741272277 Dipole_moment: 3.881
 S           1.02218596351241    0.97643411332863    0.14150066761594
O           0.39751196996390    1.55903479713379    1.31794891506885
O           0.05272593017204    0.82659058889447   -0.94388079616064
O           1.66901365673980   -0.30061673241349    0.43373929025011
O           2.12041444580751    1.97657097777475   -0.33057766654588
H           2.65533655926667    1.44901179057614   -0.95975947289984
H           0.59030346891542   -1.57408388964949    0.87232293895490
O          -2.53262686835373    0.94707457523334   -0.50245450031940
H          -1.57346080248320    0.95491595235668   -0.74520177836942
H          -2.83343939385588    1.85047411872590   -0.60954464016523
O           3.33155415957301   -0.01145838953610   -1.56665728518440
H           2.75242249087025   -0.40771761856578   -0.88330580482554
H           4.23348078512151   -0.22461673513517   -1.31664324592405
O          -0.96611670892443   -1.58251712403310   -1.56580935389522
H          -0.45474696686834   -0.75285625465964   -1.49481393519074
H          -1.87210073839639   -1.30883910083471   -1.72644165020821
O          -0.24664144338973   -2.07650104290202    0.96174554516147
H          -0.55484674983072   -2.16951705768059    0.03382378321566
H          -1.13141960346626   -0.97824292519631    1.54865533529764
N          -1.59035127663017   -0.03095614663629    1.80861311499599
H          -2.22569776950811    0.26134910141437    1.03528647946719
H          -0.78872460972631    0.66992214369861    1.78215609635603
H          -2.05477650852802   -0.05345514187559    2.70929795330866
