    23
        -45.37257590  Gyration_radius:  2.36486147873 Dipole_moment: 4.768
 S          -0.14080718409022    0.09248138142208    1.57838443460406
O           0.66136204773264    1.06074127728187    0.83040917820806
O           0.63271361935781   -0.67168543193130    2.51832235682492
O          -0.69924869125782   -0.91297839928447    0.46260821381851
O          -1.35946190170560    0.67780520289760    2.11950775062237
H          -2.23170514731058    0.84839316859428    0.95627056930659
H           0.09299014711827   -1.17334634158481   -0.04819667141299
O          -0.69012412555702    1.90340258799041   -1.26176158165147
H          -0.10102032870534    1.76155903217307   -0.48332723041835
H          -0.38467859347463    1.25280968576132   -1.93087506608090
O           0.31276199390774   -0.05562093156066   -2.82679250692522
H           0.85771161819326   -0.48140002858445   -2.14126273400550
H           0.91358930325415    0.19136101344234   -3.53192124276292
O           2.55667351830376   -2.18167305886805    1.52112241085976
H           3.34751845988357   -2.01125062299005    2.03540001627358
H           1.82824379517641   -1.71469215928853    1.98921620530349
O           1.72728200565446   -0.85623214647755   -0.63642929154863
H           2.19034584266229   -1.46116841286263   -0.01925254694731
H           1.61417678447684   -0.02071734574910   -0.14078233959443
N          -2.71648069964516    0.92221589058918   -0.02002525510761
H          -2.88891213813998   -0.02523643194402   -0.34505397787034
H          -1.95012602782014    1.39045603522081   -0.64830268776481
H          -3.57280430799007    1.46477602573347    0.02274198627092
