    23
        -45.36867441  Gyration_radius:  2.31738843124 Dipole_moment: 5.141
 S          -0.28704524125962    0.27316411751432    1.34980724426710
O           0.94577500188676    0.49392878081888    0.61045399668530
O          -0.12997854340000   -0.52823566140886    2.52090857011530
O          -1.32093108559288   -0.34110728931076    0.39766186026350
O          -0.90185756568440    1.61956248038476    1.71412206709023
H          -1.22263941816838    2.03704237440613    0.79724217525234
H          -0.92288193449958   -0.71376804191578   -0.50909508481025
O          -0.28437208674512   -1.10345164159174   -1.73834565625138
H           0.51571964011335   -1.57429026747608   -1.37334047585896
H           0.04704427033046   -0.25466290735912   -2.07975606414599
O           1.79618229578753   -1.91021459535465   -0.37987275923787
H           1.46185572988497   -2.52113173433241    0.30381047562124
H           1.79534724449313   -1.04056957018443    0.05019240258386
O           0.64645352265600   -3.00921234219192    1.81741850576983
H           1.09675577921674   -3.40669730533051    2.56480832059876
H           0.28823361316496   -2.15958534578833    2.13706003954855
O           0.77883553604992    1.44547704941561   -1.82221519888828
H           0.92900000235670    1.15506518862551   -0.89116649082823
H           1.64436583267671    1.64619948662361   -2.18265662576437
N          -1.64698259198860    2.43129528614017   -0.57710303795839
H          -0.85933693052932    2.29631253652858   -1.20753157052605
H          -1.98833845136051    3.37931998313692   -0.66412732123163
H          -2.38120460938544    1.78555941865504   -0.83827538229509
