    23
        -45.36002203  Gyration_radius:  2.4080965704 Dipole_moment: 3.459
 S          -1.05625304359962    0.74505099918597   -0.60588829254036
O          -0.69027613687254    1.20238909760566    0.72118415010593
O          -2.06961002089575   -0.27341315583786   -0.61485677053846
O           0.15687147821610    0.28772015997027   -1.34190055100703
O          -1.56774417340234    2.00201729956164   -1.38384156418678
H          -1.65407727108393    1.68195868358490   -2.30204204762499
H           1.34136821143927    0.02919476460120   -0.62422080935474
O          -1.06371122935236    0.72508772537069   -3.65697294359474
H          -0.45068799318298    1.17293457357324   -4.24468851909908
H          -0.52585260075904    0.31348241723008   -2.95571535753281
O           2.16750712492531   -0.16565968375543    0.01735016415835
H           1.88236851218195   -1.01509348469782    0.55769202529650
H           2.13886028908142    0.62724118496032    0.66795632957693
O           1.67451721853181    1.79002493606855    1.55797253641601
H           0.73168999208650    1.72895808850225    1.24634480232159
H           1.65435797892690    1.63503782884671    2.50443165436550
O           1.31721794201068   -2.17447149130371    1.27563072292261
H           1.26728407410215   -2.93427932102334    0.69274085436008
H           0.34818989221293   -1.92232846332127    1.49904541396430
N          -1.14083546038054   -1.48108809603909    1.72712031643054
H          -1.14581802163902   -0.63712516851473    2.28823618981558
H          -1.78401725419419   -2.13931878981992    2.15091068382126
H          -1.53134950832562   -1.19832012470809    0.82351100189158
