    23
        -45.37138165  Gyration_radius:  2.35953657772 Dipole_moment: 4.640
 S          -0.59082666652772   -0.82899306620228    0.26405229623650
O          -1.68258473875911   -1.58075501485458   -0.29322564572026
O          -0.41808054940871    0.48123077686151   -0.42822542715039
O           0.76245481456777   -1.59107208363869   -0.03307040680157
O          -0.60884973466549   -0.63914183375668    1.69233670794160
H           0.20048666009342    0.49073683105618    2.73797089939577
H           0.73336731983869   -1.86203686793180   -0.99595249061706
O           0.68965685306439    1.33445878164391    2.85478265026269
H           0.05159958170256    1.99650097473485    2.51459252361680
H           1.54519970668133    1.11662067060697    1.64321992929871
O          -1.21199721123384    2.41245778168943    1.29027296016502
H          -2.08110399560162    2.17900805226240    1.62084168170050
H          -1.00716080207970    1.75604917214339    0.59565100847228
O           0.56800279951013   -2.17849915239106   -2.54392474147071
H           0.22548499341922   -3.07081789083861   -2.63093369835272
H          -0.18612768864484   -1.57816121353906   -2.78690390569350
O          -1.54365142346092   -0.62249014249426   -2.73540912003107
H          -1.25399163843552    0.25771335514743   -2.47582885527203
H          -1.83014866983673   -1.03229490348971   -1.89068770108456
N           1.88433894317420    0.83045047055461    0.63775097521663
H           2.19917920687629   -0.14065463991492    0.64584120088896
H           2.58458324565278    1.45584269371997    0.25248456632096
H           0.97016899405908    0.81384723862912    0.06436457268631
