    23
        -45.36714857  Gyration_radius:  2.27911166223 Dipole_moment: 6.289
 S          -0.89910655188586    0.32042493555634    1.42977364805806
O           0.18659549772395    1.17701307248709    0.92259885246393
O          -0.55697547251445   -0.31734872772528    2.66065826298769
O          -1.11628910421949   -0.78503232896449    0.30709544130412
O          -2.17472353722393    1.03885981710962    1.38884556954458
H          -2.42980051459839    1.08899632151658   -0.00657433937291
H          -0.42231509357159   -1.49571172958452    0.37645403947959
O           0.88527694234619   -2.45194753714253    0.30285740171925
H           1.23535985282698   -2.29283707062718   -0.58081283446402
H           1.43062959628306   -1.89623275052077    0.89794447664553
O           0.03626188886112    1.32185332601597   -1.65033231436202
H           0.61426658520523    0.57166559246982   -1.85761722880231
H           0.16937935509484    1.44024440275733   -0.67567362746041
O           2.12788186344610   -0.41541806798984    1.56691357485807
H           1.43283943755459    0.26392782176415    1.38526474012667
H           2.03279838785096   -0.59186100627752    2.50608430770433
O           2.17746779418317   -0.49020636905264   -1.35492345436504
H           2.95700150803155   -0.14090109690368   -1.79038159711745
H           2.29732193620321   -0.32220370582848   -0.40906310432833
N          -2.50992712033889    1.02170072266803   -1.11786787933491
H          -3.11750721120653    1.74204888553704   -1.49477749087163
H          -2.85452663945593    0.09082922542712   -1.33376404748080
H          -1.50190941059346    1.12213629730670   -1.47270242693406
