    23
        -45.37304265  Gyration_radius:  2.28350333468 Dipole_moment: 3.011
 S          -1.17457957384628   -0.92306284500659    0.90851218811048
O          -0.79246235986390   -1.34143689779919   -0.43876341141699
O          -1.61708133181012    0.45864298564280    0.95654825108975
O          -0.14445677253877   -1.22230710044328    1.87978095036265
O          -2.42572341742245   -1.81713975607738    1.28098299618813
H          -2.54547043167999   -1.60303916126576    2.19995239865231
H           1.50869930519192   -0.73478207037769    1.84107925054030
O           0.08394108715874    0.72183762427254   -1.98423053606303
H          -0.39244681827924   -0.02913666917294   -1.58774607835374
H          -0.61041195838072    1.39634286435888   -2.06906624715888
O          -2.09783530890082    2.11651629512612   -1.14440397398498
H          -2.05985687188808    1.49055987704773   -0.39645132586229
H          -2.11647078191752    2.99047203847949   -0.75093913264143
O           2.28713182897575   -0.30495683753756    1.42438722981488
H           2.15393391476632   -0.89347846194473    0.09084386681799
H           1.94524617609445    0.60006565507147    1.22367079263886
O           0.77443471559718    1.64049930351671    0.51562808234655
H           0.69333572568247    1.51080508675234   -0.44732375451733
H          -0.08220457551227    1.34497730214362    0.86858953601978
N           1.78100230214589   -1.27895163936714   -0.88255188576017
H           1.78426613793761   -0.53115584872505   -1.57937071364567
H           0.75873817747187   -1.49799335405326   -0.69818003450905
H           2.28827083102663   -2.09327839064109   -1.21094842867959
