    23
        -45.36199998  Gyration_radius:  2.3198980084 Dipole_moment: 4.045
 S          -0.95507965678813    0.39836507442372   -0.69308891579932
O          -0.51174648038312   -0.84504843565207   -1.27464325255634
O          -0.65976457708963    1.56157644522342   -1.49773246540118
O          -0.38530359899443    0.56175411917897    0.67381532002997
O          -2.50054854091260    0.28680057016888   -0.48674461716678
H          -2.72442264048996    1.09791715472841    0.00830767675785
H           1.08058790704197    0.37974121111401    0.61194307617425
O           2.07326157228749    0.22608660508005    0.35401554655280
H           2.18167712683375    0.81595145987281   -0.47777622229144
H           2.06640592711629   -0.80374143760035   -0.00701693702117
O           1.91359158615798    1.67373280413526   -1.72704475463500
H           2.14993336020939    2.60354507266717   -1.70825573030985
H           0.92009820135044    1.64423873573956   -1.76890985875177
O           1.74492468689550   -2.06935400289235   -0.52259452349001
H           1.05703992260174   -1.78557564918019   -1.15575052862449
H           1.20417787025717   -2.46716953605904    0.20528567922591
O          -2.31546656592696    2.27708168090558    1.25883840227156
H          -1.45313869513330    1.82292516772101    1.21029824612527
H          -2.64493910821831    2.15349787385186    2.15191889062993
N          -0.30359709062032   -2.46134870470329    1.14387563698444
H          -0.87114208433150   -3.26951391591122    1.36634880466366
H          -0.75848035026404   -1.95491996119726    0.38632252776635
H          -0.30806877160477   -1.84654234163477    1.94858800885200
