    23
        -45.37423932  Gyration_radius:  2.24427574231 Dipole_moment: 5.565
 S          -0.54900925585976   -0.35600308739475    1.28046692352922
O          -1.95878495270759   -0.10694677539869    1.52351899997428
O           0.24952802135075    0.85661692597178    1.29472175937590
O          -0.36733970428347   -1.08376900091471    0.01491405592464
O          -0.04745536002555   -1.29348530937010    2.42985248054745
H           0.80973742167638   -1.64274496676840    2.12984760875155
H           0.38219773859353   -0.30685074162091   -1.39665663609625
O           0.85290185367561    0.32299364558401   -1.97085460683066
H           1.70111148263607    0.46642579449676   -1.50442845836340
H           0.05025897667397    1.69863546177465   -1.45863404803769
O           2.64636755202191    0.50316008585794    0.04699545454807
H           1.89064960826950    0.77594751000642    0.59750342190640
H           2.84173017855382   -0.40098354311397    0.31572965686789
O           1.88117096582840   -2.16372814089796    0.77425588386523
H           1.08847546100598   -1.85153779376666    0.28176687144113
H           1.98615507652582   -3.09546821678927    0.57228884657864
O          -0.54405891718090    2.22723177521495   -0.85840605401254
H          -1.76258663470906    1.44921509307766   -0.93065302743057
H          -0.22161318686528    1.99236653921126    0.03670242395127
N          -2.57761875314150    0.68742257242419   -0.84632814655068
H          -2.47072834175803    0.32801190620650    0.16053549751403
H          -2.38111223955464   -0.08315657654657   -1.47971425637941
H          -3.49997700076557    1.07664683278692   -1.01342464108574
