    23
        -45.36012516  Gyration_radius:  2.32022020572 Dipole_moment: 4.098
 S           1.46756067449266    0.29473581980425    0.50892777256676
O           2.79101203290590   -0.04877435995533    0.10077186538320
O           0.63390169037585   -0.83778869694096    0.85467779085149
O           0.76110968984362    1.07384230018510   -0.64443154297002
O           1.48041187363170    1.29038093858521    1.65057721999669
H           0.50782601993033    1.64255679905084    1.83070005428903
H           1.19741256244387    0.74867498957007   -1.49808524391305
O          -0.85583938738926    2.04126548588073    2.12724726636610
H          -1.43035546628857    1.24638878934212    1.82040661855447
H          -0.94719836613951    2.10011108907418    3.08097142810365
O          -1.79122406040103   -0.01807398243315   -1.51147991847216
H          -1.15775206204331    0.69470213782106   -1.37757275776943
H          -1.25966408391230   -0.80034482438904   -1.70682737821152
O           0.28986563470703   -2.02757267914083   -1.47291577135634
H           0.32228652592755   -2.98303315014236   -1.39793888346286
H           0.39654823517208   -1.67071950482587   -0.56320819171714
O           1.99927623513371   -0.15720295897880   -2.49302669442228
H           2.72863424873613   -0.27145873246139   -1.86596388727856
H           1.44959140800005   -0.95889515064806   -2.42398704054879
N          -2.09893772190765   -0.09669985610712    1.36349117551693
H          -2.85882151422406   -0.55766070024129    1.84669830426173
H          -1.27680170767350   -0.69467162978044    1.39270170138889
H          -2.34884247130307   -0.00976213325773    0.37826611282155
