    23
        -45.36961821  Gyration_radius:  2.36699504793 Dipole_moment: 6.091
 S          -0.13148887538199   -0.12833965371570    1.13766120244344
O           1.01369128193386    0.68540327136420    0.73892135521237
O           0.19014368675692   -1.51696450728379    1.35695695347697
O          -1.14833087402717   -0.03582742744798   -0.07101546579540
O          -0.85914640735335    0.50211195886151    2.24485247312751
H          -1.47221171842742    1.62153130648957    1.66222512700599
H          -1.13034480761275   -0.93439808899679   -0.53156623167989
O           1.51628798692987   -1.93839025916327   -2.20672463358244
H           2.01106876724813   -1.70249305127865   -1.38304673530819
H           2.01046004936033   -2.64842701188782   -2.61922799124672
O          -0.82193484262210   -2.39098906860534   -0.98111052726257
H          -0.03314145135604   -2.27936443889967   -1.56009298915581
H          -0.47165547499668   -2.56736863548167   -0.09419842679884
O           2.60546252779857   -1.38548086040817    0.15494156030475
H           2.39039095044828   -0.44626312426114    0.27483856625141
H           1.95407609639259   -1.81415167083775    0.73091707738961
O          -0.01532958053728    2.51880620567522   -0.75685362314848
H          -0.24457908940605    2.01839384285928   -1.54411989089830
H           0.52372741714209    1.88942101908678   -0.20675674575016
N          -1.90088046007773    2.46804072910788    1.06384727850843
H          -1.98476183501177    3.30820419454450    1.62710685828719
H          -2.80291071735023    2.17915356698337    0.69852037382751
H          -1.19859264975944    2.59739171338163    0.26392443471607
