    23
        -45.35637977  Gyration_radius:  2.36298517404 Dipole_moment: 6.181
 S           0.04097982000017    0.21227747887143    0.68259762479985
O          -0.48155512749140   -1.08564698451707    1.03215707088595
O          -0.78471211867475    0.96094223166035   -0.24146068123087
O           1.40831426114262    0.06989369663681    0.10008346147293
O           0.23153204112046    1.03013671220228    1.99119782050012
H           0.80518672597915    1.78212091890803    1.73059900759849
H           1.39679585018172   -0.71450732491031   -1.08924316785387
O          -0.66587897980308    0.23499779756132   -2.71806533363498
H          -0.47286792669823    1.02632765650852   -3.22534429394646
H          -0.85437520006914    0.53975568385073   -1.78990192624724
O           1.18236246288609   -1.29371855454131   -1.95266729582369
H           0.67928023233737   -2.10768972460835   -1.55853935557072
H           0.45387857636690   -0.72363214494031   -2.42564149910319
O          -0.15407235271590   -3.01387387797548   -0.67792536059556
H          -0.41314219192473   -2.34794745485061    0.00962109250451
H           0.28182667335076   -3.72836381616420   -0.20861952659815
O           2.09681654872159    2.50388427481237    0.85521368225044
H           2.06494700941107    1.65716837383199    0.37045254784233
H           2.93885270310898    2.52944697996835    1.31579592472451
N          -2.72624958428804    0.61818078165487    2.00295624087463
H          -2.48890162493741    1.04362408540055    1.11397213615132
H          -2.33319460921717   -0.31555419905864    1.97075520489688
H          -2.20582316877843    1.12217740972467    2.71200662613029
