    23
        -45.35637987  Gyration_radius:  2.36298297174 Dipole_moment: 6.183
 S           0.58353661225924    0.18166336395276   -0.37197286319299
O          -0.31696506654570    0.60761075956455   -1.41483854699766
O           0.41265057843120   -1.19551015559844    0.04079336737912
O           0.43245552390878    1.06486809573359    0.82235432869487
O           2.04122530467067    0.40039786738371   -0.86687505891305
H           2.58896801206278    0.33500682003539   -0.05558169744052
H          -0.88790631385981    1.01227436718585    1.35566367853800
O           2.90536810467269    0.58925276658309    1.61473222571975
H           1.95824542394167    0.82545848482297    1.62203471409539
H           3.39369100534377    1.38967411856115    1.82119296314969
O          -1.90045286078569    0.82344567554983    1.61220639176689
H          -2.39840449675091    1.02770551916100    0.72818150835516
H          -1.91571017280424   -0.21135647048930    1.70290513685427
O          -2.74754033816807    1.21956797311318   -0.73187720218307
H          -2.90905878803185    2.10884833394683   -1.05415727229294
H          -1.88263191861510    0.93528717758676   -1.12499364128309
O          -1.61340504335208   -1.67743678497005    1.56961165619805
H          -1.27279426111874   -2.14821921649084    2.33325563269762
H          -0.86158926155633   -1.62231540767250    0.92016471994939
N           1.06464217381938   -1.61344182241500   -2.84453823511064
H           1.99533098468085   -1.21190719686948   -2.83601714420609
H           0.91089697015618   -2.00556925861019   -1.92245577177716
H           0.41944781763422   -0.83530502005914   -2.91978890003009
