    23
        -45.36096014  Gyration_radius:  2.4250367434 Dipole_moment: 2.682
 S          -1.03163798485921   -0.96581303738087   -0.60282262573043
O          -2.37308830558249   -1.08575321141007   -0.13517582448039
O          -0.02015189595157   -1.36170833187376    0.35417886161663
O          -0.73165058101736    0.51132939596220   -1.00612758138056
O          -0.86631836359505   -1.71454799991466   -1.91289592689523
H           0.04833802371147   -1.48914939590086   -2.34700468701389
H          -0.47206348244255    0.97470820169682   -0.16645546819239
O           2.45731635711563   -0.78870092868217   -0.54242668208631
H           1.66024578922961   -1.10798725361374   -0.08195948933582
H           2.54044028054627    0.15362202812960   -0.30151603363178
O          -0.14426907668283    1.10542201977119    1.45344085698948
H          -1.08789874865376    1.17819902520973    1.77306241344038
H           0.05434935360642    0.15643685192512    1.48149178232425
O           1.41038971629447   -1.21665353960312   -2.86452024938594
H           1.79487328646858   -2.02993070614499   -3.19992783776536
H           1.92201251009498   -0.98352244697290   -2.03120773082447
O           2.36069547161311    1.76500000922626    0.45617158266888
H           1.47944539987467    1.73981797901088    0.85919154623116
H           2.97696926334124    2.00792269296322    1.14917112414526
N          -2.73495110835014    0.88148105373412    1.93966005839250
H          -2.80808593928364    0.13753616779046    1.24413739362316
H          -3.36647322934414    1.62212407228974    1.66086368252772
H          -3.06848674612990    0.51016737378906    2.82067082475901
