    23
        -45.37085701  Gyration_radius:  2.28087882987 Dipole_moment: 6.658
 S          -0.88667399979170   -1.20536300423778   -0.71204264951323
O           0.48365206570150   -0.72774308310415   -1.03259256678979
O          -1.44088379626828   -1.99632479413804   -1.77407576156372
O          -1.73115993247055    0.14728641286226   -0.61219168251013
O          -0.91482826539394   -1.77433895801625    0.61032183452938
H          -0.47003076173738   -1.21688578619729    2.17677539039937
H          -1.73799655094337    0.43284634359177   -1.54423459498391
O           0.04047646357464   -0.62897303974769    2.77537033898502
H           1.22373275383204   -0.58327375739253    1.92824404455457
H          -0.34949811567999    0.26310884783117    2.61353454881643
O          -0.85247897307873    1.59145338345806    1.63048893431354
H          -1.48273785920989    1.15497794713057    1.04225832757832
H          -0.12081995745667    1.85949239037092    1.04793658894174
O          -1.17021543535007    0.17146839862358   -3.19934066437540
H          -0.22521098486138    0.19315887013635   -3.36794081220335
H          -1.36018910085770   -0.75829878839019   -2.95303255276289
O           1.02911834137121    1.78576333644900   -0.38878038436804
H           0.77733133204493    0.90284410421479   -0.74138262080174
H           0.76899705001112    2.42751002233477   -1.05116270395714
N           1.96820376916848   -0.52814817160340    1.10136831631163
H           2.73311630242780   -1.18129051091145    1.23018682993450
H           2.30777175787122    0.42715410952324    1.00127040889907
H           1.41032391708665   -0.75642427278582    0.21902143055765
