    23
        -45.37557704  Gyration_radius:  2.30370556693 Dipole_moment: 3.687
 S          -0.29685526728843   -0.15627448578783    1.24301036571421
O           0.03750051262230   -1.50888824571168    0.83180436891413
O          -1.70382299323782    0.06702372610963    1.44004334648867
O           0.27986714054730    0.82634084381258    0.29694537291793
O           0.46585011370218    0.07129296544145    2.59583646416355
H           0.32199688997383    1.01725364913213    2.78442977734902
H          -0.37766092767750    0.81947670664989   -1.37225780876822
O          -0.73600472143083    0.39255129538008   -2.17246214926754
H          -1.61272613787507    0.05562467558141   -1.88474274276421
H           0.19013831568144   -0.85858675399515   -2.06691090246954
O          -2.83662397231274   -0.57857829089339   -0.85261800427550
H          -3.72292488127945   -0.21261644930069   -0.83316697970425
H          -2.45941380057983   -0.40588569734736    0.03951424932221
O           2.64648508319930   -0.22730570909177   -0.27384160557840
H           1.83604547963903    0.28335748138508   -0.05604670661321
H           2.87068058112397   -0.70098197855630    0.52971966084249
O           0.18520091290558    2.68166330058969    2.18781258318197
H           0.12379273573121    2.23038188991673    1.32551400379020
H           0.95045325060325    3.25960321682541    2.14299231713977
N           0.81623628491957   -1.61823086880507   -1.63265769881318
H           0.85486829817687   -2.47342409981146   -2.17471755963631
H           0.41516341212219   -1.76049009613759   -0.65547749355865
H           1.75175371073819   -1.20330709539067   -1.44272285837938
