    23
        -45.37557702  Gyration_radius:  2.30397067908 Dipole_moment: 3.689
 S           0.53320697045103    0.59448870878646    1.00952550547450
O           1.68793365093961    0.29978884291750    0.17870662117219
O           0.42269142807981   -0.23662829657750    2.17793521556624
O          -0.70607113297692    0.55748574561551    0.19961742816604
O           0.70153483389934    2.09299886743310    1.44474189750359
H          -0.13890803881450    2.29678051210893    1.89568990498634
H          -1.18154783389724   -1.03740250110252   -0.46978913133747
O           0.05446375072227    1.66424020717727   -2.08815315546281
H          -0.34182012752687    1.32881679001653   -1.25426393004737
H           0.74172471629275    2.27492338668205   -1.81416927908351
O          -1.00468801862130   -1.91335705915127   -0.86019603643267
H           0.19054652599417   -1.41850403305454   -1.73164516948293
H          -0.57141366518947   -2.41065587997419   -0.13209174783900
O           0.37547888113984   -2.71346533445960    1.27316244843775
H           0.05143195550002   -3.26070598261049    1.99105420708098
H           0.47120344952488   -1.81024108372847    1.65142090157967
O          -1.90038735401136    2.11502039824272    1.98107244541468
H          -1.72906003885756    1.40509220483350    1.33490433074893
H          -2.48605423747424    2.74323747518330    1.55213176995995
N           1.02605959812154   -0.82290259401462   -2.05589624333224
H           0.65883713890874    0.05239493841258   -2.48309134306932
H           1.67615974883333   -1.32254943165630   -2.65117271850885
H           1.46867778897217   -0.47885589107229   -1.14949391150066
