    23
        -45.37557689  Gyration_radius:  2.30357296871 Dipole_moment: 3.693
 S          -0.05505137840495    1.28056687801642   -0.12318761379301
O          -1.02943373470139    0.83240355648522   -1.10303630595740
O           1.16999791290776    1.77133392335589   -0.69467160676456
O           0.20102459948513    0.21442124369861    0.87229540628104
O          -0.76207475728515    2.43309690493974    0.67388816367783
H          -0.13741124433450    2.62979984994679    1.39656757123606
H           0.99984136783652   -1.27548133080330    0.27162863466244
O           1.02305435701311    2.04585763444671    2.60340951705141
H           0.74566144154418    1.82560875673473    3.49571657022370
H           0.95868698828203    1.22589780659005    2.07964885679730
O           1.17458786906884   -1.97220991755805   -0.38792655230607
H           1.63775699847783   -1.49714057380578   -1.11225893416632
H          -0.30354708383132   -2.04354286803245   -0.88210674617365
O          -2.20862699745165   -0.82819227892718    1.24930327031237
H          -1.30117047115321   -0.45188844932861    1.24577568821176
H          -2.79243586877135   -0.08220509165163    1.09751683820709
O           2.08700075232618   -0.21379375596894   -2.16957072764650
H           1.73625042612881    0.57353508096440   -1.69518560803922
H           3.00474703372193   -0.01193335892870   -2.36155036856823
N          -1.31305064382992   -1.73882076427306   -1.09597273012773
H          -1.23308287525346   -0.69611506038452   -1.30178925442107
H          -1.85739614728047   -1.76075021487686   -0.20906358281326
H          -1.74532851449364   -2.26044796063298   -1.84943045588543
