    23
        -45.37185248  Gyration_radius:  2.26814876719 Dipole_moment: 3.159
 S           0.42020364795140    0.83517137381977    1.51360227244883
O           0.05420856348842    1.73349391617741    0.43274639259441
O           1.77695378150893    0.33531928369936    1.41883605639435
O          -0.56031200782310   -0.23555760740044    1.66287889019671
O           0.37652315328998    1.68439197200482    2.85090877528767
H           1.20428104926685    1.45659831264768    3.26190519440512
H          -1.40003287491821   -0.68448530462692    0.47217191194975
O           0.30862592829118   -1.84751891455886   -1.42031608114324
H           0.74520377934646   -2.19987682874174   -0.60647161218320
H           0.79055831646738   -1.00900737746956   -1.61073531453914
O          -1.78960936896359   -0.95103893044117   -0.43106415886096
H          -0.95816421250289   -1.41700080680146   -0.92232575775108
H          -1.93495708298490   -0.01880798167728   -0.94419614818654
O           1.29223496591600   -2.25093312139176    1.00763808657963
H           0.51722622026388   -2.33454121648826    1.56991250990952
H           1.61634370433651   -1.34237811525911    1.17219482001969
O           1.54530367601620    0.51456046832259   -1.39915615122966
H           1.01451561971369    1.06414817810156   -0.79017374221242
H           2.35672368094191    0.34042013269463   -0.91394788073434
N          -1.89909697868230    1.33178858709619   -1.51776295300706
H          -2.75533401207784    1.86941154995208   -1.53449320093439
H          -1.46582291527894    1.37522035065891   -2.43143568563470
H          -1.25557664357928    1.75062208969425   -0.84071621337116
