    23
        -45.37292315  Gyration_radius:  2.3207481965 Dipole_moment: 4.910
 S           0.17782262602738    0.58476896622694    1.23763108434453
O           1.48402103439413    1.09134864456863    1.56019128074166
O           0.16896672544599   -0.86439947173872    1.02020901353712
O          -0.30635806247308    1.22490012727800   -0.11675279073335
O          -0.87554043431539    0.98577555820135    2.17451389019304
H          -2.03784952036290    0.91276567672728    1.39989259280946
H           0.37644906622074    1.03176222507607   -0.84986432883432
O           1.38532338768939    0.57468023072153   -1.90016069066925
H           1.16703933478207   -0.37829317174043   -1.94464880643894
H           2.23241637295595    0.60764071988121   -1.40312371882022
O          -2.06904008533990   -1.60497744183299   -0.08136481721780
H          -1.74318230407047   -1.84262751599597   -0.95417100553678
H          -1.24963269767767   -1.45325010239314    0.45397233135885
O           0.83130282378952   -1.98830927538920   -1.28012038218566
H           1.63655575497681   -2.50221870644560   -1.20016159936814
H           0.65515126529858   -1.63141568647839   -0.38081364600319
O           3.38674891653927    0.47256373687197   -0.13773933537522
H           2.73147502832087    0.63829002075422    0.57950150886214
H           4.06207137568214    1.14427908781002   -0.03004003034839
N          -2.85719691294706    0.79372486484507    0.63997849588006
H          -2.70333537317530   -0.18463897456624    0.25431485944024
H          -2.67283874710431    1.48053942024428   -0.08673562686244
H          -3.78036956465767    0.90709106737457    1.04549173121832
