    23
        -45.36004309  Gyration_radius:  2.4442630716 Dipole_moment: 2.223
 S           0.10281964352468   -0.92367426129673    1.16832317524302
O           0.40842390593492   -1.79007727525116    2.26493380948693
O          -0.06254623353853    0.46700765272118    1.47407411710233
O          -1.22676904967809   -1.39596022572124    0.49320324261010
O           1.16581804804262   -1.10557355589980    0.09277468804244
H           0.83569574045215   -0.77554996918735   -0.85510602411623
H          -1.19355364374505   -2.38394852386421    0.52747093960649
O          -2.06487071116646    1.36696687423719   -0.13408122631560
H          -2.42984207814079    0.51883349604527   -0.39670649239152
H          -1.41398648543570    1.16125628691687    0.55809436907212
O          -0.70226304026235   -3.86442145652420    1.09524125508092
H          -0.09138341778466   -3.36569201223241    1.67281885405372
H          -1.30226711258877   -4.34170355578791    1.67359049639231
O          -0.12863224888725    2.11934897071019   -1.86912354781212
H           0.54954642501838    2.39643082985158   -1.20788959557718
H          -0.95861775368178    2.04612509885357   -1.35623401090225
O           0.41096565514724   -0.34808711968763   -2.14842939574648
H           0.17270025132065    0.65076220691034   -2.09121112024296
H           1.14999249994096   -0.41307361599264   -2.75700997750065
N           1.58617739529041    2.51094341715520    0.19422267853889
H           1.07616212004761    1.85481517001036    0.78268704889151
H           1.56614191826835    3.41158674040710    0.65654181057653
H           2.55028816185850    2.20368484761491    0.16181491596959
