    23
        -45.37905403  Gyration_radius:  2.36334845724 Dipole_moment: 3.625
 S           0.87692572055365    0.50866952417297    0.82153688493118
O           1.71792446060784   -0.39484319781409    0.04109406901024
O          -0.22804537107443   -0.21248376145293    1.43759327493753
O           0.40972307959623    1.62712343357868    0.00627226863021
O           1.73523144533550    1.08673070741084    1.98666932438612
H           2.30396627881421    1.75063103759330    1.54418758121860
H          -0.76346805883438    1.19292238300845   -1.18246844587921
O          -1.40392884902598    0.65302155487084   -1.69087937459414
H          -0.60776650641855   -0.65580514611559   -1.77822535854181
H          -2.11615316332994    0.46855062655270   -1.04146125394655
O          -0.92107859957326   -2.63156730230506    0.64825711757900
H          -0.66830620901669   -1.76033074175250    1.03776014118647
H          -0.45398202811804   -3.29105286240249    1.16316355771921
O           2.63936378833907    2.95131830962320    0.35394832799442
H           1.80734669408180    2.60290486170475   -0.02819373300947
H           2.46164261946576    3.85955513182204    0.60927126477134
O          -2.75965155206766   -0.09099087254544    0.49994292331515
H          -1.92078770968274    0.03621415784884    0.98137622579903
H          -2.95749724629452   -1.02757260069139    0.57758713093741
N           0.04918835829730   -1.49395229037549   -1.58825340462544
H           0.86023777333757   -1.08033335279901   -1.02396939016455
H           0.36231786807507   -1.94632000123036   -2.43953961025667
H          -0.42320278307376   -2.15238960870142   -0.93566951135360
