    23
        -45.36638243  Gyration_radius:  2.37506495604 Dipole_moment: 7.406
 S          -0.29942390516003    1.07559513449147    0.38694335410123
O           0.91626975879347    1.36706862362960   -0.30889220102941
O          -0.15829055951292    0.12109386246258    1.47024823539563
O          -1.36469339198080    0.54926531703124   -0.57944442079831
O          -0.92525098607123    2.36470430505942    0.92335525402485
H          -1.74836151832752    2.03044642034895    1.43581959705994
H          -0.98478094656149   -0.28448136646571   -1.13798496108356
O           1.61135645745509    0.07326377017393   -2.79197082559357
H           1.34549470346630    0.92384789683821   -2.42610300355718
H           2.33592374612215   -0.22030205448699   -2.20013026392267
O          -0.32320197136978   -1.35882565748789   -1.77368761190550
H           0.15645449443883   -1.81369262412988   -1.05670267717430
H           0.37950803117091   -0.89335673488250   -2.31250679779409
O           0.99235910575849   -2.05137354368759    0.52268233656750
H           0.60512853018620   -1.26230073896649    0.96523870697411
H           0.93494916447658   -2.77609595495502    1.14761994659500
O           3.03783283096585   -0.43564820583711   -0.55865048578811
H           2.54439659766091    0.35102457161659   -0.28568293548390
H           2.56115191070722   -1.18059869736879   -0.16834986897966
N          -2.78583843723551    1.06505639781518    2.10213298296534
H          -3.27217812587549    1.28524908315840    2.96110035182312
H          -2.10662677698854    0.32980729023107    2.27082275929983
H          -3.45217871933863    0.74025289134437    1.41414253162421
