    23
        -45.36018169  Gyration_radius:  2.33469898838 Dipole_moment: 2.199
 S          -0.95428223869504    1.32649066836683    0.98895073657934
O          -0.20322052300698    0.43863860687580    1.84962773205822
O          -1.64819031321062    0.63570595429696   -0.07911260874791
O          -0.14336205517693    2.43117252307489    0.46128639061276
O          -2.05467650774705    2.00876654941316    1.89475299428607
H          -2.46967930633797    2.60673638399038    1.28138053796153
H           0.94440505861921    2.09205132845844   -0.38895522966187
O           0.78795798893416    0.29536993777399   -2.93137943679874
H           1.42696911714100   -0.16752797842587   -3.47669407582427
H           0.31172748802111   -0.38254397889614   -2.41744644090940
O           1.73681463417879    1.65686611574618   -0.94217707383850
H           1.94566138379896    0.78382405045158   -0.34997018157062
H           1.34955201429792    1.28371237948513   -1.79762823885845
O          -0.21071509838336   -1.34495769558614   -1.00529847335885
H          -0.81935175535326   -0.61248061156856   -0.74484845749261
H          -0.45554689895071   -2.04703013596191   -0.36595688764317
O           1.82840322676277   -0.41989125342470    0.41054399190468
H           1.24941443999111   -0.13471770968513    1.15148196858315
H           1.21512543675265   -0.95015671711106   -0.15856011104460
N          -0.88307498629690   -2.40753562278983    1.38708085787518
H          -1.86197524480583   -2.62834715906567    1.52364078361459
H          -0.74521498786536   -1.45079863789113    1.71277461138856
H          -0.34674087266785   -3.01334698752009    1.99650661088610
