    23
        -45.36018230  Gyration_radius:  2.33486475669 Dipole_moment: 2.226
 S           0.02046990123314   -1.06451260267011    1.58700379108405
O          -0.69832048071701    0.19331804614045    1.61487684817785
O           1.33097697698195   -0.95999515944767    0.98287703961599
O          -0.79972661412890   -2.12609207637841    0.99036966430098
O           0.24893633305818   -1.50220814716061    3.08799912444606
H          -0.64446190739275   -1.58019167824414    3.40704043330657
H          -1.15006431401728   -1.98950285433613   -0.38111387432706
O          -0.25633564736309    1.57316177613379   -0.56447101242929
H           0.57908587054909    2.02235741649303   -0.31525936070828
H          -0.50557856109111    1.12569291006438    0.27948323374774
O           0.91332622682767   -0.57211843299646   -1.58780707318250
H           0.55974521633909    0.33488022322088   -1.40456294541618
H           1.29487494777156   -0.83840592626562   -0.72219886127002
O          -2.49139852027065    0.50351111538035   -1.68576310196626
H          -2.60966017359608    0.82130164410249   -2.58297955249380
H          -1.82083697131789    1.07598973200498   -1.26966443718807
O          -1.25732491774540   -1.75781172759380   -1.40955710163801
H          -1.88598247301444   -0.97068079822219   -1.48624580659517
H          -0.29032083815960   -1.33912652064417   -1.62692738791669
N           2.16676146412060    1.85613705850013    0.59763875426382
H           2.01373517877930    0.88519287621782    0.87021897207982
H           2.19920081346343    2.40137124325543    1.45048330500218
H           3.08289848969320    1.90773187246490    0.16855934910354
