    23
        -45.36460649  Gyration_radius:  2.42727948647 Dipole_moment: 3.087
 S           0.07930847562822    0.81886053201327    0.79472804989494
O          -0.77802363502409    1.60555070739230   -0.05598172942739
O           1.40915957387871    0.60487058309369    0.28124397848365
O          -0.58906436092101   -0.51125860975944    1.10847774843363
O           0.18609300698426    1.49142935335152    2.17490153451386
H          -0.78886667607108    1.66946070718378    2.41887747148737
H          -0.31158444722832   -1.36163363648375    0.46760278562554
O          -0.23674038324413   -1.40046885644576   -2.76554346399802
H           0.33772977893125   -1.75921504099431   -3.44425271297248
H           0.00257735440997   -0.44681759836788   -2.67852366588497
O           0.10490224804003   -2.37626609229729   -0.34359860379409
H          -0.11878390486879   -2.08596187428944   -1.26690122668520
H           1.08741671121213   -2.32541793383461   -0.28179240590585
O           2.67062099410241   -1.71925437654541   -0.08076490117877
H           2.34611505683789   -0.80365042886244    0.03176611970473
H           3.16445754282456   -1.92953858372863    0.71344846506510
O           0.57316729342154    1.09974054047177   -2.32488912408436
H           1.35893031227804    0.99610850009401   -1.77623524962064
H          -0.09125261705481    1.44801558271253   -1.70638531157957
N          -2.36285952299949    1.75664661328506    2.28549541370343
H          -2.92355005309652    2.50502645372816    2.67128308186481
H          -2.80043367305185    0.87091740938978    2.50247472078469
H          -2.31931909521038    1.85285605920044    1.27456900533810
