    23
        -45.35447701  Gyration_radius:  2.47224981792 Dipole_moment: 3.791
 S           0.01524126404651   -0.87585910526833    1.09403868596785
O          -1.09395899513844   -0.12875106187228    0.56425036833605
O           1.11512530427220   -0.10480336467773    1.56634985411173
O           0.46884598182821   -1.88547000509187    0.01034622290611
O          -0.46037566249518   -1.80426271524048    2.23761152367651
H          -1.05700545381327   -2.46850877128273    1.81989020661220
H           0.23501932423686   -1.41510297111434   -0.91770872034109
O          -0.23596432797782   -0.61711553937865   -1.98454051795146
H           0.48578643885049    0.05423250763513   -2.17919799664925
H          -0.91137493359465   -0.14265267545939   -1.48070290818302
O           1.65636148800244    1.13439977450035   -2.23575236127781
H           1.68720426019948    1.60734724946051   -1.35500516652945
H           2.54178567455082    0.80100133801111   -2.38689485011959
O          -1.55695220605476   -3.60574811395085    0.68621781332980
H          -1.35131772731641   -4.51769370748253    0.90712749685263
H          -0.87962272675081   -3.29884956979150    0.06602741486306
O           1.68906683798518    2.18705040475228    0.14936235974288
H           1.67168456688661    1.42307585267906    0.74660618370026
H           0.80806435813689    2.60644944235610    0.26373245006170
N          -0.94395792526432    2.80754866087219    0.54233082150868
H          -1.17892127343460    3.22902140359293    1.43199504961322
H          -1.14537347349907    1.81227182174857    0.61165549801304
H          -1.55936078365263    3.20241916502936   -0.15773941826891
