    23
        -45.36230096  Gyration_radius:  2.38206570034 Dipole_moment: 2.026
 S           1.18609468943689   -0.40349879393587    0.63203747682699
O           1.19975969659619    0.18298527883133   -0.68932014718234
O           1.65760988575384   -1.74683680765836    0.70057740638372
O          -0.28880106218173   -0.32776513054047    1.14226530148965
O           1.93600052025241    0.46561656757144    1.62694501308389
H           1.51576504605277    1.41049810680036    1.67657531911992
H          -0.81869237021422   -0.63461994634152    0.34393854907780
O           0.93376058550047    2.77626079021799    1.63993705235939
H           0.55854581173721    2.84042136464738    0.70540011390398
H           1.63861270803527    3.42537738941113    1.69516163147614
O           0.08763486605584    2.63558692650323   -0.78810779084651
H          -0.85720111559774    2.39084242918943   -0.73651997173163
H           0.56449922038198    1.80350145712570   -0.96101312065129
O          -1.21276374882152   -1.03449736590536   -1.13591450759379
H          -0.97558365439006   -2.00781152433203   -1.10611390332785
H          -0.43624552550597   -0.60242706120057   -1.51994166252349
O          -2.31765184548710    1.44320967010226   -0.29692800546226
H          -2.19791541916448    1.23848155621863    0.63418570641189
H          -2.27933943488528    0.60229024610845   -0.76990831550198
N          -0.15193693802250   -3.42219612652325   -0.78507103765198
H          -0.61491908645995   -4.11462533041702   -0.20962276807079
H           0.60255252463142   -3.01423350420497   -0.23094616802090
H           0.27021465627011   -3.90656020166446   -1.56761616157616
