    23
        -45.36505809  Gyration_radius:  2.39439350787 Dipole_moment: 5.712
 S          -1.53806544069556    0.35052461885956   -0.26963554948422
O          -1.83061605066140   -0.59489056927300   -1.30095183906465
O          -0.37162148085273    1.17490213232085   -0.53429256496919
O          -1.34746320029954   -0.33186891191463    1.08570258279184
O          -2.74442438581722    1.26427314731174   -0.02088577024008
H          -2.40362191042751    1.89373199836276    0.70794679426834
H          -0.61624978363410   -1.11899812953561    1.06628366681980
O           0.39389664752459   -2.09049901234303    0.93875061966261
H           1.25416302625056   -1.61772811901399    1.00562919515082
H           0.32694824052387   -2.36848096914826   -0.01288849181967
O           0.23745308295235   -2.30288199709095   -1.68226581016517
H          -0.63264335146299   -1.87200897978317   -1.73483904144267
H           0.87133048313406   -1.61474258604525   -1.93293761161475
O           2.73829016036767   -0.81834142393752    0.59360817134685
H           2.46391551837408   -0.41497954625473   -0.25170814645651
H           3.42189567559374   -1.45698469194632    0.38190508900141
O           1.68204733677829    0.10079006457392   -1.75351575699040
H           1.99571068244894    0.72404395987804   -2.41081591111337
H           0.90178168870156    0.52741165055214   -1.32361950612192
N          -1.41483944816489    2.58417063715173    1.72996883334629
H          -1.33772016875916    1.99613648715997    2.54954832399905
H          -1.45578340283215    3.55313696246281    2.01755634032476
H          -0.59438391895709    2.43328329763654    1.15145637273277
