    23
        -45.36284766  Gyration_radius:  2.40627871346 Dipole_moment: 3.412
 S          -0.50247326825261   -0.74708263635592    0.14097447104003
O          -1.38282967786798    0.08742911064200    0.91707159215005
O           0.12745963530878   -0.07689079977023   -0.96489407827226
O          -1.27979348543430   -1.96821680909107   -0.38769429276175
O           0.52777153039513   -1.35505588375643    1.08404877699721
H           1.47301051250578   -1.46002926766885    0.65948886120658
H          -1.65627650625419   -1.68502087629086   -1.29009890031265
O          -2.05417983174804   -0.82024315098894   -2.51184024417232
H          -2.66038565555849   -0.17917416173343   -2.07821961076950
H          -1.21038007871800   -0.35936396830140   -2.59632390107320
O          -3.32649661398934    0.78758614089380   -0.79595268213921
H          -4.16369966373811    0.53840286424418   -0.39933418669547
H          -2.64796566656462    0.66391171308108   -0.10455829199167
O           2.86045220895248   -1.41638763387706    0.16905842881657
H           2.87625498153964   -0.44654354907189   -0.10889172264871
H           3.46751616176866   -1.50123763841086    0.90804558478996
O           2.52006124346290    1.08674417380730   -0.35636173565132
H           1.74801898205638    0.88909554010297   -0.90712636297536
H           2.12354597565493    1.40585381865243    0.48702909091281
N           0.99395004231855    1.61838255361559    1.84237164745770
H           1.25510591233709    1.17938447418087    2.71708209314526
H           0.13534128730456    1.17112122304643    1.53249568868458
H           0.77599196472446    2.58733477296732    2.04362975423182
