    23
        -45.36284762  Gyration_radius:  2.40618225196 Dipole_moment: 3.414
 S           0.37978157565933   -0.73888309450795    0.37399458489482
O          -0.26181173682955   -0.37717697288823   -0.86152168321571
O           1.48410098001013    0.10982132715939    0.73989207565940
O           0.85885252519483   -2.20078279913864    0.28281198122544
O          -0.60987404377113   -0.75430519908323    1.53187082182093
H          -1.60592343906136   -0.80028324504404    1.23065849695562
H           1.15830513203699   -2.33263404015355   -0.68118944265361
O          -3.01623641450888   -0.64111663812263    0.83985145752955
H          -3.52799438840431   -0.33699741933500    1.59312773572160
H          -2.89924059618151    0.15342435005399    0.22883326843303
O           1.53799499346419   -2.04779783415600   -2.15533678523721
H           2.29725177091679   -1.43777767794914   -2.02183262218041
H           0.78322030532524   -1.47935160078554   -2.35223568248761
O           3.28102420107082   -0.24829237820209   -1.22126469076572
H           2.68674169658296    0.01940798872222   -0.49399052112570
H           4.10698056301143   -0.51237719423658   -0.81091851067266
O          -2.31736699254323    1.39593942457523   -0.58076509911920
H          -1.66902593964057    0.86389781502080   -1.06554093287793
H          -1.76594964897897    1.89678439122527    0.06391181292363
N          -0.45236599841968    2.32445807112228    1.18106676563414
H           0.26890095546682    1.62981184206367    1.00627906010054
H          -0.67145522400325    2.27868133910611    2.16902247493420
H          -0.04591027641340    3.23554954446760    1.00327543449562
