    23
        -45.37142392  Gyration_radius:  2.33627757727 Dipole_moment: 3.403
 S           0.76608879878647    0.47273805345932    0.97025500528016
O           1.59296798365466    0.51392143259961   -0.23665034296268
O           0.19465216134479   -0.84919430689790    1.18116484918349
O          -0.27134549756405    1.49698634327726    0.93390766108976
O           1.69108263969350    0.75888210107336    2.19061772045557
H           2.18234462926278    1.55754950821540    1.91038079520806
H          -1.34487994425581    1.31987808377108   -0.09383570034957
O          -1.97131059857241    0.93048416986949   -0.81227367927330
H          -2.32911511456189    0.00744439193907   -0.30826081527762
H          -1.29962030647416    0.58917292759731   -1.52348763020048
O          -0.10286001461165   -0.05686145678630   -2.19310086434223
H          -0.16610822577476   -1.01218199673599   -1.99009819117084
H           0.63036724334663    0.25365426906350   -1.61913154781177
O           2.94621385015435    2.54973109860641    0.71538958951461
H           3.88999391568536    2.44334537972812    0.57579348295134
H           2.50158469799418    1.92631077075775    0.10615663830999
O          -0.02718769065021   -2.44279621499426   -0.93177405960871
H           0.78217116477306   -2.93516032155660   -1.07681493089026
H           0.12016128026686   -1.91894490936211   -0.11297385122764
N          -2.47827102960666   -1.18608401535324    0.43357624740111
H          -1.60875195810520   -1.14663416869041    0.97594959680206
H          -2.43118147144306   -2.00867509875013   -0.15615486160162
H          -3.26699652338955   -1.26356605085891    1.06136487856039
