    23
        -45.38014016  Gyration_radius:  2.28456010068 Dipole_moment: 4.836
 S          -0.16896643533277   -0.01141324211226   -1.87096916014442
O          -1.59249771061978   -0.18024905024926   -1.64111122106590
O           0.60827742836972   -1.09920284564484   -1.28534193116206
O           0.30307468089266    1.30101478623767   -1.47638322892323
O           0.06870583422665   -0.12221603439940   -3.43071909697556
H          -0.33011374475726    0.67885007792410   -3.75441836440835
H          -0.23325574696320    1.76610983808629    0.10929409775121
O          -0.50543632827831    1.81200924700832    1.04565962969462
H           0.78925160274918    1.06179641636703    1.91014920653368
H          -1.31771860651176    1.29422096168808    1.10899238033638
O          -2.40537728840588   -0.30161556739400    0.80258918272950
H          -2.15270036306272   -0.24346134004343   -0.15872169240424
H          -3.35712115756449   -0.41081056841762    0.82093796546407
O           2.60807853474949    0.41848028568666   -0.30238848251491
H           2.11668041589040   -0.31016481581778   -0.71685802612277
H           2.17819027976773    1.20301090818689   -0.66556517333833
O           1.44434052493198    0.35027293499415    2.10203137081421
H           0.61858786432245   -0.81448347734420    1.71635963938312
H           2.08162258150077    0.40257091157948    1.35151970715594
N          -0.03668877586975   -1.55539548366593    1.22657287701660
H           0.08094687038064   -2.48763995850307    1.60657883726118
H           0.21974262555872   -1.52071580051669    0.20453798255828
H          -1.01762306597632   -1.23096817365622    1.29725352036433
