    23
        -45.37623162  Gyration_radius:  2.30441174129 Dipole_moment: 5.284
 S          -0.24732823158857    1.27895698415434   -0.40120418062177
O          -1.07613190000640    1.55693453661165    0.74089402715401
O          -0.84658046121175    0.30392026755819   -1.31677918910834
O           1.09922652357249    0.81529912146877   -0.02258336479777
O          -0.06822742080054    2.61642268155826   -1.19022535322446
H           0.65001056073931    2.44507520228898   -1.82841293912728
H           0.86282311514909    0.31782838706531    1.62660084847365
O          -0.73822476817534   -2.17840029049403    1.52962304766333
H          -0.01023291646766   -2.08443407876151    0.26581320108853
H          -1.59351862108500   -1.73561537421437    1.31292190241027
O           2.22206715830671    1.68821491918544   -2.21599720707244
H           2.00679462279395    1.25528323212668   -1.36331187416843
H           2.96268065860037    2.27459431205291   -2.04663577049372
O           0.49837327004419   -0.01596796340363    2.46681909819717
H          -0.25454980335129   -1.51257453171299    2.07407329714564
H          -0.20726416282018    0.60439248408589    2.67410014564049
O          -2.68227986956428   -0.57918752338026    0.67140356222740
H          -2.76569488996787   -0.62792558771089   -0.28462687976694
H          -2.22572242098271    0.27135497020053    0.82559717306162
N           0.50138052659990   -1.78878960330902   -0.67521679733538
H           1.39334268523757   -1.35715480869686   -0.43667753451504
H          -0.09680799827147   -0.99134056016190   -1.07843013802520
H           0.61586436327722   -2.55688676651144   -1.32774509481286
