    23
        -45.37623178  Gyration_radius:  2.30388508077 Dipole_moment: 5.290
 S          -0.65527731001102    1.00440862953702   -0.64977986953702
O          -0.61528306742558    1.23445991333291    0.79718390474425
O          -1.73652695648959    0.14471155826859   -1.05003150630901
O           0.65830995159293    0.50320359189145   -1.09106929571336
O          -0.87418075879605    2.38987797885096   -1.33966625289083
H          -0.03704178792587    2.87525966410345   -1.21364547030156
H           0.31708980498404   -1.16835651896321   -1.42533781452308
O          -2.29837582249088   -1.00376253125645    1.29811431811763
H          -2.15898438198924   -0.22323811943834    1.84106865303734
H          -2.26444847507371   -0.66336407129120    0.38239163307743
O          -0.04221959101341   -2.07455001064104   -1.42655197837174
H          -0.03537717135709   -2.57010555666862    0.22164807277201
H          -0.96335672336067   -1.95636636815592   -1.67797420430922
O          -0.09105339080307   -2.48409850256840    1.20298296275412
H          -0.98971151966811   -2.10685402009570    1.36038558715452
H           0.77519120461000   -1.32905615725760    1.42975999933949
O           1.75075801137590    2.87724968809565   -1.15138413347766
H           1.56048981380088    1.91567175145340   -1.15640310639669
H           2.14752482011314    3.08282294438033   -2.00068771507590
N           1.30231926235928   -0.35096837157754    1.44339094053845
H           0.52812724334115    0.38378222482422    1.31241116234180
H           1.87855887155803   -0.28222635977581    0.60552750472727
H           1.84346798269699   -0.19850132702921    2.28766660829396
