    23
        -45.37469463  Gyration_radius:  2.24192926752 Dipole_moment: 4.333
 S           0.51060425273475   -0.75103080811974    1.29115021292858
O          -0.06157931859284   -0.77261282309297    2.60503068762787
O           1.02540539650803    0.56720730986414    0.90685165765394
O          -0.66773098045032   -1.03864415981532    0.24239959996139
O           1.48326918757778   -1.79703816972499    0.99973135344345
H           1.54441367638936   -1.86178255561679   -0.44999459828428
H          -1.48172390092483   -0.72764340578003    0.73762673286446
O           1.52494010485926    0.78992587370980   -1.66517315201014
H           0.59891115853034    1.02779157115504   -1.90210372564310
H           1.53196898985350    0.85579614084973   -0.68286862697096
O          -0.99270009006287    2.21806528141604    0.87433298165958
H          -0.76384674124595    3.04640698193229    1.29831877773240
H          -0.18788029380392    1.64488435181715    0.93697319995121
O          -2.42871368002051    0.04796805573850    1.75598709701708
H          -2.20280648952901    0.96759289649611    1.53184238573985
H          -1.80223385556810   -0.21474334506893    2.45378068499771
O          -1.12803033429952    1.02356076427815   -1.66129202669216
H          -1.27183492946157    1.69261231931856   -0.97554170151986
H          -1.19547863112596    0.18021140606646   -1.19371863096758
N           1.50737615802268   -1.77828321492540   -1.54272822032560
H           0.61418633117132   -2.14384944084551   -1.85947747239909
H           2.27871759429831   -2.27958268868419   -1.97144026529552
H           1.56476637816965   -0.69681235590329   -1.72968694051006
