    23
        -45.37469464  Gyration_radius:  2.24196211258 Dipole_moment: 4.333
 S           0.61873307181199    1.44776535282993    0.11198986292113
O           1.43950911750618    1.99785501594183    1.15012544764008
O          -0.74885385304835    1.15330031424009    0.55178768044871
O           1.22613284354624    0.01707023430491   -0.28199224326837
O           0.61609276427101    2.17215408008536   -1.15306647695594
H           0.13796038733315    1.21487163489282   -2.13527940311953
H           1.70138332346847   -0.25740280328177    0.55666748085649
O           2.11630920546202   -0.38082244084406    2.08909972732600
H           1.26276896316031   -0.64339180778641    2.47575094031509
H           2.12597508622318    0.59280722101327    2.10836861002167
O          -0.53233613280680   -2.18862249423079    0.07817869934554
H           0.24762624825260   -1.67204419095305   -0.16541674216419
H          -0.67244939838857   -1.98830237402977    1.01563689608102
O          -2.08094179283779   -0.38128673839244   -1.11685974439200
H          -1.80345955882254    0.29333959970095   -0.45561211363690
H          -1.72750843806887   -1.22226609995720   -0.74523472020711
O          -0.59700372020607   -0.65313907152956    2.42604287828450
H          -0.69961041143370    0.07834786101372    1.76679232724869
H          -1.17300835227753   -0.43343366480091    3.15969823386531
N          -0.26004027644399    0.40205210802754   -2.75435946619087
H          -1.10417983472920    0.01024737965457   -2.16965260207044
H           0.46113324019170   -0.30676128762140   -2.85053574592085
H          -0.55423248216988    0.74766215190143   -3.66212951640850
