    23
        -45.38101019  Gyration_radius:  2.3572198368 Dipole_moment: 2.416
 S          -1.05154439592586    0.74615056922452   -0.36853159487815
O          -0.79550140136313   -0.41013379808885   -1.21520690337394
O           0.15008807333493    1.56896487650875   -0.21679648268641
O          -1.58510060767228    0.34977502921782    0.92744397740634
O          -2.12467955320881    1.60784798284633   -1.10192051133374
H          -2.11956694089435    2.44642915970964   -0.59823010025096
H          -0.71645726071000   -2.14788668879926   -0.78079559339144
O          -1.30627737228596    3.68478313596634    0.31488509819957
H          -0.58312616738117    3.02523030677275    0.29576996970801
H          -0.98959701226645    4.45146057075216   -0.16827619809678
O           1.70948818562665   -1.14792581313175   -1.66426827043676
H           0.78650072497451   -0.81562564866669   -1.58173743785813
H           2.07561155815375   -0.71876502258348   -2.43858679684647
O          -0.26818048663039   -2.92544434011388   -0.39498532749960
H           0.56762917063261   -2.97930543914503   -0.87110469155227
H          -0.02580223179268   -2.19758260371257    1.06842519889277
O           2.06335459258791    0.00230501231060    0.77372606525203
H           2.23177159339399   -0.48534814667647   -0.05477964667050
H           1.47137172003743    0.73191875818422    0.49266960559988
N           0.10208157530808   -1.42011869035630    1.76706590072127
H           0.07409422064913   -1.74700926914801    2.72607135533029
H          -0.67319627210934   -0.71400573891919    1.56149418446816
H           1.00703830770364   -0.90571420246552    1.52766823936391
