    23
        -45.36022651  Gyration_radius:  2.36131935358 Dipole_moment: 2.361
 S          -1.11085306905696    0.70300919121725   -1.44265939315424
O          -1.29628730583059   -0.61715115648117   -0.86600274154680
O           0.02727285244591    0.82763839369841   -2.31475539608065
O          -1.13535556496975    1.74123845794231   -0.40449177446918
O          -2.39126753856313    0.96681349431319   -2.33997331303900
H          -2.05365119403172    1.62531328924520   -2.93741073658826
H          -0.85799705660352    1.50784203834523    0.96094352959269
O           2.07454689564125    0.20121328414506   -0.69614383460607
H           1.89586908409864   -0.76457114317863   -0.62047895274304
H           1.41480975465097    0.52242008505246   -1.33975838460499
O          -0.57652313039312    1.22349104336187    1.94204970059161
H          -0.88634152169943    0.25435513650589    2.00243811148413
H           0.48022650652615    1.21429646258841    1.90179316436167
O          -1.44994225138028   -1.15787735742952    1.66872647432042
H          -2.37508247384376   -1.30194444410083    1.87629545376381
H          -1.40149568141387   -1.04715383920939    0.68385515110799
O           1.90500812416800    1.20340810930576    1.65015830633247
H           2.26963496877199    2.08742071525680    1.57764730004428
H           2.01204438483294    0.78314643790779    0.73144237859828
N           1.06263422327501   -2.30611317960002   -0.50787947095480
H           0.17445878939232   -1.90599378571616   -0.80201833959426
H           0.92911173479818   -2.69775836275903    0.41594968809003
H           1.28917945918799   -3.06304285040697   -1.13972693091473
