    23
        -45.37189113  Gyration_radius:  2.38870166553 Dipole_moment: 5.352
 S          -0.27531620931155   -1.16599467024024   -0.62623150693407
O           0.88290183379648   -0.61539199138969    0.11468193101297
O          -0.07924726088183   -1.06454814635092   -2.04552515217835
O          -1.49882875606252   -0.48976819843313   -0.15971813335221
O          -0.39317732744085   -2.66286234357770   -0.24168637288573
H          -0.91106332094359   -2.68692043416805    0.61123668964093
H          -1.06166802359392    0.97108286619523    0.19652480170388
O           0.32309409924966    2.84136679235783   -1.87981316683404
H          -0.33032271350851    2.80931662627266   -2.58109828013687
H           0.98808451381505    2.13675555032743   -2.10570519295454
O          -1.75297214047726   -2.19151898292298    1.91173239710994
H          -2.12660282069445   -1.49840829881762    1.34726182868717
H          -1.05640453333839   -1.74796401391340    2.43577415347061
O           0.47298003447400   -0.85664272754262    2.69615987076383
H           1.15239995331214   -1.39774327965111    3.10163043775768
H           0.70240999735766   -0.80086265424827    1.73928935289728
O           1.82867615803380    0.72910793513134   -2.28467034118294
H           2.36301755451597    0.44652390023677   -1.53848526549540
H           1.13655723652301    0.03381072322683   -2.36084752463454
N          -0.29384704538795    1.68511356359851    0.39859060964295
H          -0.12799450320022    2.29279091475475   -0.45817614447822
H           0.50574756391518    1.01715201663680    0.47967544539849
H          -0.44842429020865    2.21560488248482    1.24939958299881
