    23
        -45.36669918  Gyration_radius:  2.2917997043 Dipole_moment: 4.993
 S          -0.08942417624992   -1.47014189083057   -0.39690099760707
O           0.79390217733636   -1.95990310922271   -1.40165174093296
O          -0.90879472009437   -0.34151290790410   -0.80187148540475
O           0.68989871220573   -1.05433681125280    0.86859564780512
O          -0.99432451786432   -2.58603009430718    0.11811536515709
H          -1.76630388610873   -2.11755823758563    0.59286083387181
H           1.30150014955661   -0.20814050204506    0.67991705976536
O          -2.78229084659087   -1.10380444832664    1.13238706340913
H          -2.85587159394532   -0.55251869201294    0.34643467293852
H          -2.27979416134855   -0.56476038612635    1.79462651773637
O          -0.59878826511367    2.01346959574648    0.30124989396225
H          -1.10139524420351    2.68764476764137   -0.15812934713553
H          -0.75418197685964    1.16513616994113   -0.17822485063585
O           1.95145378673636    1.02432071368184    0.33821956379128
H           1.21546702960584    1.65640620402009    0.40181513064123
H           2.12779829016899    0.89523941889536   -0.64096195260403
O          -1.08513535456168    0.38694355098595    2.52159270975634
H          -0.31324965175387   -0.17803099324760    2.39350281887856
H          -0.94016218713728    1.15879072748914    1.95201633798985
N           2.11960237186567    0.42466051772889   -2.22667781067223
H           1.54764070935944    0.93380810859245   -2.88893050450154
H           1.69349381261229   -0.49415501753577   -2.09865477975727
H           3.02895955239176    0.28447330567630   -2.64933014645438
