    23
        -45.38307841  Gyration_radius:  2.27812846977 Dipole_moment: 1.790
 S          -1.36532655823437   -1.14840205757431    0.58683853387854
O          -1.08543166211077   -0.05132008521863    1.52046610294915
O          -0.15347353644537   -1.82202601729989    0.16797836560117
O          -2.20287979723735   -0.70755893544279   -0.50646709480393
O          -2.20635015144275   -2.21524104404063    1.39772944860107
H          -3.08458497062577   -1.85194155065864    1.35220193418280
H          -1.57369221351868    0.35538944378426   -1.68246659326310
O          -0.96228224296855    0.97753506645539   -2.13254522663424
H          -0.16596113698198    0.45073067206243   -2.31266224223296
H          -0.51493147754408    1.78085578217591   -0.83980745127960
O           1.48179237203543   -0.66301934193109    2.02876809272606
H           0.55472049489136   -0.36979035885045    2.08563104144010
H           1.41884245003099   -1.49315024542050    1.54338251459905
O           1.20773961564919   -0.69218415275317   -1.75338168179688
H           0.69083535228842   -1.15503176017084   -1.04836987385368
H           1.57970046614137   -1.38209465733633   -2.30485654104275
O           2.27747886356867    1.04466794087012    0.12708673370232
H           2.15207583944872    0.46531471543643   -0.64302903314439
H           2.17977291750968    0.45531873573151    0.91141644059133
N          -0.15563062437154    1.99793028023643    0.14116874318200
H           0.89469323786755    1.77842620847466    0.15581189182412
H          -0.61168563565285    1.29616409168812    0.77823099278777
H          -0.35542159229736    2.94942726978975    0.42687489199029
