    23
        -45.37101399  Gyration_radius:  2.37633161741 Dipole_moment: 2.401
 S          -1.29691731500554    1.00721678885900    1.27967780405717
O          -1.23840267914626    1.68762807531055   -0.00883090868174
O          -0.12991449063110    1.26413983314338    2.10617767176483
O          -1.57788219707597   -0.40691690387257    1.13212540513203
O          -2.53539417448510    1.64404489163821    2.04270914416441
H          -2.52110764164599    1.15322745685974    2.85741587537880
H          -1.22962687214245   -1.78348750907260    0.14040555009328
O          -0.85975073030555   -2.25919093528509   -0.63119301785259
H          -0.85483003465752   -1.02336884046962   -1.51019549316259
H           0.07438033403173   -2.42862940942626   -0.39365877013214
O           1.77425688972350   -2.20474015166873   -0.02414532707048
H           2.45892667237210   -2.19488644643688   -0.69452495909916
H           1.82758333028420   -1.34642732510786    0.43959334347182
O           1.98371633526476    0.29612422669638    1.02187583118984
H           1.15133400428856    0.63650707317757    1.45769027921100
H           2.69245849889868    0.50002798428085    1.63498159023068
O           1.29063900336061    1.44919371390645   -1.35481518353311
H           1.73106786340552    1.03386117015831   -0.59202240358909
H           0.60216204283931    1.99937585692203   -0.95648110808750
N          -0.84977149876198   -0.02300292179029   -1.93104945915246
H          -1.25316823913812    0.62038357919721   -1.19151811662114
H          -1.36396207464057    0.03583334084496   -2.80247139125137
H           0.12420297316227    0.34308648212955   -2.02174633646807
