    23
        -45.37101411  Gyration_radius:  2.37629662596 Dipole_moment: 2.401
 S          -1.31084221185626   -0.85138335411944    1.37459748716762
O          -0.15081468852175   -1.54614270955262    1.90633342974579
O          -1.65656964557082   -1.27918720500304    0.02401169850388
O          -1.19296835252966    0.58985826310368    1.47167228237623
O          -2.54163610133365   -1.27418861870943    2.28451042903638
H          -2.25278012583142   -0.96864194015489    3.13773290014729
H          -0.62641311976569    1.98528641383253    0.61644765819051
O          -0.26292449471667    2.48039506771382   -0.14592015415336
H           0.70582243300521    2.35699641023615   -0.08272706334126
H          -0.75339521378533    1.46570202365914   -1.16014912403312
O           1.95130910215121   -0.97847911001765    0.55004981448992
H           1.13663957040139   -1.16487671663119    1.09796743842187
H           2.65940675563415   -1.46652849307062    0.97453691536101
O           2.30582574000966    1.63857726697902   -0.09699269295603
H           2.84364020589516    1.57383874052731   -0.88746317563015
H           2.18336795653547    0.72634190250578    0.23065401587369
O           0.58481905329340   -1.46410355858179   -1.76420119950332
H           1.24254095557613   -1.32184631617743   -1.06031027800782
H          -0.16038300183732   -1.87849510074156   -1.30768903802467
N          -1.10368761861438    0.59116729319005   -1.69932953386264
H          -0.30378563656406    0.00764478081840   -2.03196964947181
H          -1.74446975311026    0.82620993815577   -2.44858763004213
H          -1.55270182846866   -0.04814497795830   -0.98317452029042
