    23
        -45.36440548  Gyration_radius:  2.44982688064 Dipole_moment: 5.988
 S          -0.19108107105754    1.25992555591521    0.70301523413566
O           1.06219400695556    1.63687723137079    0.13544939573772
O          -0.11810104564807    0.15762840738203    1.64588696643283
O          -1.21452715211682    0.88727742998133   -0.38150103232259
O          -0.85429682275452    2.46290629275931    1.38074158654687
H          -1.70849304593755    2.06685231097133    1.78085214696480
H          -0.97205349992548   -0.01145130234218   -0.86626915855750
O           1.28095991708709   -0.56061433607604   -3.22610906262566
H           1.73707018409956   -1.18877590033892   -3.78789158975809
H           1.92391731229285   -0.29767769143550   -2.52197057030301
O          -0.53317611548624   -1.27735530762801   -1.44478404697329
H           0.02816537198020   -1.01297879863262   -2.21699911413874
H           0.08660437239077   -1.64910646078645   -0.79141003421900
O           1.26274814353348   -1.80470091584294    0.57037241852168
H           1.40113079206248   -2.51213527386965    1.20257856943525
H           0.81515458052480   -1.07599780671621    1.05846672926583
O           2.78003687899991   -0.09640277530735   -1.08493219071384
H           2.35546204498385    0.69264212417767   -0.71031153557594
H           2.49972345758567   -0.82007529137697   -0.50674325114974
N          -2.78911154594899    1.00794006641194    2.22375778842611
H          -3.34438061120909    1.08809158485439    3.06521748801873
H          -2.11334264620626    0.25769041306613    2.32900563724282
H          -3.39460351619972    0.78944043347251    1.44357759559340
