    23
        -45.37142406  Gyration_radius:  2.3361142213 Dipole_moment: 3.403
 S           1.14270724783236   -0.49016534847234    0.45251027421142
O           0.76744796494437   -0.86772241957011   -0.90230050672490
O           0.21464295350435   -1.04382005179164    1.43157780027206
O           1.25581021701581    0.96232019052076    0.59310547353192
O           2.55033752555447   -1.10445945981638    0.71284852014796
H           2.82849879125097   -0.67073444578331    1.54482856527787
H          -0.26556779222570    1.69683181449386    0.36532902852217
O          -0.46186958138666    0.95771078682628   -2.38955375296645
H           0.06889459186911    0.28726324381816   -1.90456723003239
H           0.17244913191440    1.52023038403350   -2.83654328292555
O          -2.12443903729819   -0.34054755285149    0.88686386606924
H          -1.22778135525105   -0.67632699810640    1.26442677827488
H          -2.17171359983276   -0.89327939176273   -0.07726111961487
O           2.88173478013230    0.67555236362783    2.63148342957960
H           2.19892394300727    1.02277527589666    2.02261028028553
H           3.62966692274627    1.27465407665011    2.57515629115076
O          -1.18392468235205    1.84961749698946    0.05435545582543
H          -1.12706247661180    1.70673247479277   -0.91218521666992
H          -1.89392468348916    0.63147404860678    0.61290744641015
N          -1.91627363991714   -1.52919005934614   -1.31076145709916
H          -0.89227626495195   -1.56608953787473   -1.26270951023318
H          -2.16251883111341   -0.94246867895547   -2.09929178149587
H          -2.28376211534078   -2.46035820193251   -1.45282937179175
