    23
        -45.35962607  Gyration_radius:  2.40295780269 Dipole_moment: 0.773
 S           0.61796959472672   -1.12498679514128   -0.75096119090764
O           0.21002677319910   -0.11013881110571   -1.66828834083084
O          -0.20503611097720   -1.26332118695782    0.42978422722515
O           2.07116645283515   -0.89940387972959   -0.31587548138520
O           0.68129618701593   -2.48870132275803   -1.47263771410587
H           0.93089317052305   -3.13907963445632   -0.76793287420380
H           2.24118854416075    0.14730520591824   -0.31211964759394
O           0.20394574996170    1.34223054669657    1.38971183644304
H          -0.60355128728907    1.85989030140622    1.12200736704941
H          -0.02883980886953    0.41386978353930    1.25877544424332
O           2.09855422558463    1.58021821100452   -0.33976764191300
H           1.59575610198452    1.71142297593755   -1.15092152642541
H           1.42927858622555    1.64949665152513    0.41060005912976
O           1.28954048317181   -3.48829300062268    0.84942078421205
H           0.63831174282039   -2.83250140534119    1.14207396171166
H           2.15531880098710   -3.12811545573915    1.06157136577294
O          -2.42546380712678   -0.00789506869815   -0.84797590835588
H          -2.13856039445335   -0.60447056500406   -0.14923016238006
H          -1.65379928086027    0.07561304965244   -1.42421126316525
N          -2.03573087410602    2.52333356747169    0.50229100339185
H          -1.95939410817874    3.30515100014977   -0.13565463450455
H          -2.73333059289151    2.75816041992985    1.19685263634439
H          -2.37954014847266    1.72021543230103   -0.02751231973567
