    23
        -45.35733400  Gyration_radius:  2.4238448863 Dipole_moment: 3.186
 S          -1.07780295577157   -1.44823700665025    0.84522646551547
O          -0.73751701191314   -0.33519832558984    1.70738851458270
O           0.04113127566181   -2.31185036490601    0.54364376482839
O          -1.75590648387925   -0.99260772066114   -0.37880227347035
O          -2.14010152768107   -2.32310453760571    1.62144642515036
H          -2.14589017369897   -3.12117278676780    1.10250978140669
H          -1.05980628261880   -0.06144689487239   -1.16614134929939
O           2.23680030469214   -1.26860679667113   -0.51323354646324
H           2.24762759073196   -0.42058501830057   -0.05547177133416
H           1.51029132412135   -1.78252731931474   -0.09791119965079
O          -0.40120340547920    0.63096538536651   -1.64440872935202
H           0.20875381595128    0.06894995222648   -2.25566790786487
H           0.20351536749125    0.94849196084663   -0.85353964965676
O           0.95705231961814    1.15520366368758    0.41627062098254
H           0.46497673709799    0.50578452422907    0.97888244122313
H           0.61370027830149    2.00707643893124    0.76588571374218
O           1.29557520412726   -0.78548102975531   -2.89183982192499
H           1.72982455579823   -1.10241421259626   -2.04940653141979
H           1.97599451501155   -0.34650825957375   -3.40503000439819
N          -0.81117623663532    2.73685526749273    1.67769779910700
H          -1.10787272098170    1.80755019632934    1.96792635219630
H          -1.58073853069831    3.15359813967793    1.16790367725654
H          -0.66722795923385    3.28526474447979    2.51667123884324
