    23
        -45.38139729  Gyration_radius:  2.27217473679 Dipole_moment: 2.627
 S          -0.97802326503658   -0.83529478731951    1.21058847684016
O          -0.54760359287237    0.20654979092168    2.11447689376991
O           0.13300669002747   -1.67590584795351    0.76483920040001
O          -1.75154182824323   -0.33936818668055    0.08429355132923
O          -1.94624903598577   -1.77915051524345    2.03294756547110
H          -2.28721285163576   -2.36716599791730    1.36653975075832
H          -1.05371603726672   -0.14362309833366   -1.46309099411220
O           0.94923966301061   -2.24851016160497   -1.70356884605544
H           0.61445773734920   -2.16180177340035   -0.78757040977495
H           1.89781659393361   -2.36304438988441   -1.62732565791601
O          -0.41643532007907    0.02066626848534   -2.19079701536675
H           0.43984260777416    1.08699997868632   -1.47806453578154
H           0.08811574613411   -0.81420151719626   -2.25960793839964
O          -1.23130654617264    2.30873973160774    0.71382865643671
H          -1.00250609440039    1.64701017154774    1.40537024403693
H          -1.93127081498929    1.87054006276014    0.21685660345340
O           2.00133045703674    0.14606269911353    1.04787332445407
H           1.71995068367042    0.50745300871181    1.89462159162832
H           1.41396068181484   -0.63501888066940    0.93331138637217
N           0.89184844386685    1.75614575074277   -0.76427873830347
H           1.46850429513819    1.17506464034744   -0.09743208768960
H           0.08511877105867    2.15761032698425   -0.20303323146330
H           1.44267302586150    2.48024270632449   -1.21077778009184
