    23
        -45.36596478  Gyration_radius:  2.40370309772 Dipole_moment: 1.821
 S          -0.23694446262914   -0.72991311351707    1.37885924167755
O           1.05010642559245   -0.28761742914622    0.89964049914723
O          -0.64838772718623   -2.01217072881952    0.88030886698021
O          -1.28833245711281    0.33944795112895    1.04481448966944
O          -0.24470496220122   -0.73117000282132    2.90898571600217
H           0.12777800001431    0.20186890108132    3.13870146299894
H          -1.52900783604595    0.37217884134710    0.02244987574263
O          -1.73781012050020    0.34636551123173   -1.41828873487773
H          -1.04901378378717    0.95560681383080   -1.78364407696807
H          -1.46617157615954   -0.55130832821364   -1.68942806006472
O           0.34963967983173    1.66225147628790   -2.38878900391422
H           0.42956852185728    1.79971814051099   -3.33389818543444
H           0.95850893662034    0.91488161766497   -2.16419136659950
O          -0.68044256629607   -2.15585826739940   -1.74654204814641
H          -1.11303790774362   -2.95688365967020   -2.04782626332963
H          -0.64290574844583   -2.21482270641445   -0.76496251758889
O           1.64761683923540   -0.55326885545308   -1.73175893029956
H           1.00310794120775   -1.24226727692641   -1.94401684230624
H           1.61757177799121   -0.46899747213336   -0.76220773050767
N           0.75468311368890    1.61745595132264    2.97656353594799
H           0.04547177153179    2.30312275661706    2.75300933691380
H           1.25316917364452    1.37901204489507    2.12382641934509
H           1.39953696688574    2.01236784460734    3.64839430560254
