    23
        -45.36372525  Gyration_radius:  2.33030173824 Dipole_moment: 2.885
 S          -0.75124888414663    0.77706163849958   -1.02505794376015
O          -0.00733530843389    1.92599404809099   -1.42344970485016
O          -0.75898591811070    0.53077064731759    0.39964245846232
O          -0.23490840120102   -0.48946282472238   -1.74672459216474
O          -2.19026602557428    0.86099221436901   -1.53855665274563
H          -2.59308826201589   -0.04172785169335   -1.32823529224797
H           0.57383431179692   -0.88160933490735   -1.27353403282425
O          -3.00979427433919   -1.45951333155088   -0.81076295303681
H          -3.71788128088659   -1.39134405059586   -0.16571639156455
H          -2.24037255900138   -1.84915342811258   -0.33039688460151
O          -0.90326062244677   -2.09804740927496    0.70267183011610
H          -0.80690294685613   -1.13185606795443    0.80670145702452
H          -0.04589197527953   -2.40384820918062    0.39401927339581
O           1.81527062973205   -1.32643949208863   -0.50194986741451
H           2.12188842622876   -0.38449409960903   -0.29700542127677
H           2.47133282217624   -1.69033264871147   -1.10084780195933
O           2.35595543759294    1.16781827412402   -0.20610739365503
H           1.67148248578413    1.60056691902303   -0.74038638669969
H           2.13557181133540    1.40868014340768    0.72607949003580
N           1.24188997898019    1.69493540709428    2.19666520501130
H           1.39923946324694    1.17571344633227    3.05099017253343
H           0.38958236212359    1.34214405754669    1.76693350172562
H           1.08388874924584    2.66315194253534    2.44502794052645
