    23
        -45.36727168  Gyration_radius:  2.33899527093 Dipole_moment: 3.839
 S           0.94320059863232    0.50209466711303   -0.33447872283622
O           0.05992444285392   -0.34648312882791    0.48872438052162
O           2.17376470187471    0.83155749692195    0.32950164692276
O           0.13252399076313    1.81994292414652   -0.59605565544777
O           1.11502319154325   -0.09663781305301   -1.65702793297703
H           0.01147807639895   -0.77982305598556   -2.20933291186440
H           0.19574564912818    2.35804020483431    0.24458962651991
O          -0.88971757946007   -1.32202706998440   -2.38827548743530
H          -0.75490731787972   -2.13633304059141   -1.69751564966774
H          -1.57493070650956   -0.73114744303790   -1.92337691913633
O          -2.15585972066927    0.21208979027829   -0.79332726580048
H          -1.42807410557756    0.01637801486089   -0.15671480957857
H          -2.05042323362453    1.14431304375399   -1.00534541432340
O           0.39004426276122    3.05006635298581    1.65994121494369
H           1.19488400166223    3.57163053648754    1.61827046903015
H           0.60209031197043    2.27413393241733    2.23998229804384
O           1.14989722822237    0.77019813459940    2.75193147959922
H           1.79813520314264    0.74526693186211    2.01966384081710
H           0.46593783344370    0.15831802374334    2.45611647133202
N          -0.42427150287000   -2.93007675113801   -0.49891197963508
H          -0.16099822251153   -2.13310342425854    0.09014325287869
H           0.37771646217198   -3.53897556136563   -0.59356215530911
H          -1.17118356539259   -3.43942276558626   -0.04493979670646
