    23
        -45.37085698  Gyration_radius:  2.28123226127 Dipole_moment: 6.660
 S           0.00446748325765    0.82743094827154    1.43471073218686
O           1.14734678812117    0.42960367087660    0.57187038098142
O           0.43217138668850    1.19685018161839    2.75424522782036
O          -0.85064623024276   -0.51699246952372    1.55136019796778
O          -0.84045194709117    1.76065894484135    0.73593172389338
H          -1.65845528812651    1.75914147941659   -0.77961315536043
H          -0.25967441494725   -1.06853808462803    2.09617703708796
O           0.76849673096963   -1.69541895578187   -0.96778174267360
H           0.94425722253394   -0.99421105072059   -0.30086980285152
H           0.94736527228010   -2.53209786043481   -0.53626147778368
O           1.30968408851476   -1.25574611279046    2.89155356676348
H           2.10396463100086   -1.22417642958101    2.35293918042117
H           1.12820729196898   -0.32148085831861    3.12702621447823
O          -1.77461881079938    1.43940839502958   -1.70082816655669
H          -2.06466765281228    0.50300436954392   -1.58688408924343
H          -0.35062137918413    1.26960947973588   -1.95574485587709
O          -1.93515156565317   -1.10654331426492   -0.97177286329207
H          -1.93112382817547   -0.93949846030648   -0.02003807394077
H          -1.04746630805007   -1.45670331288449   -1.16147964844204
N           0.74059211766366    1.04869737038914   -1.92754323264771
H           0.96790123257337    0.93658098746918   -0.88932431248211
H           1.29266588889957    1.78949905732728   -2.34549127187799
H           0.92575731048707    0.15092204511937   -2.37218159846965
