    23
        -45.37195979  Gyration_radius:  2.26497149772 Dipole_moment: 3.944
 S          -1.01283442616823   -1.46012839649702    0.10130999178593
O           0.25554036808369   -1.59691120504215    0.80734856101631
O          -0.82310958243161   -0.94339600794225   -1.24392016607856
O          -1.99362689468599   -0.72574662228013    0.87278678826853
O          -1.59797463409502   -2.92124908670584   -0.07889315790235
H          -2.03786560858104   -3.07383343696688    0.75141771622006
H          -2.33666452610469    0.65225983498383   -0.06614464104805
O           0.07704367505467    2.34976069786325   -0.23683305250234
H           0.19723056836638    1.93399217726914    0.64834131055584
H           0.73947375515221    1.45147525319978   -1.12565255468418
O           1.13269016683075    0.61411824406510   -1.66904127536696
H           0.36950492942599   -0.05466035060297   -1.62674958053742
H           1.88508032647744    0.18903454062757   -1.02289722719233
O          -2.33772419379799    1.37503030974478   -0.72601234248390
H          -0.87761498685603    2.19980229671849   -0.44783642033461
H          -2.27364049151340    0.92644875546146   -1.57330568309801
O           0.12367876053381    0.80422785174074    1.93821034441785
H          -0.78816393818807    0.83963239291144    2.24062006444623
H           0.23059667192756   -0.10890072894463    1.60564980197983
N           2.67867838037012   -0.47524201575822    0.00589088591194
H           2.98828390638406    0.15120286005041    0.73823763895885
H           3.45702807749618   -1.05108100032358   -0.28562197642201
H           1.94438968631441   -1.07583638356885    0.39309496409343
