    23
        -45.37030189  Gyration_radius:  2.2655775544 Dipole_moment: 2.656
 S          -0.77947135578523   -1.25458720448036    1.10650806583638
O          -0.91323314671111   -1.47124221333861   -0.33885394670247
O          -0.91880567883282    0.14421851970685    1.44939073446996
O           0.41924806838662   -1.87477460401152    1.62845831047295
O          -1.99930173031941   -2.00726345175902    1.77539537015259
H          -1.66077738064269   -2.89407356648677    1.84148866951781
H           1.84852444103447   -1.28391564471155    0.99798076879233
O           0.54376346283984    1.61269691548763   -1.67985250909828
H          -0.45266481522949    1.52830490639118   -1.57077434565160
H           0.87363484833354    1.84533241382086   -0.79265238176172
O           2.48239700389620   -0.74850085369866    0.46576269111758
H           2.32064338350460    0.17181639263375    0.73658701418490
H           1.83460659381175   -0.83282528329355   -0.87582331256408
O           1.13862597095751   -0.79886116971935   -1.65677995708086
H           0.92443529758517    0.25906341144841   -1.78939529468208
H           0.28975549343652   -1.16989959604745   -1.22691327899924
O           1.17582796828762    1.60475034174518    0.97758018778431
H           0.36413057144554    1.07643273755973    1.19382307659969
H           1.25070848175079    2.26985215693394    1.66326679205170
N          -1.96744131642748    1.07669473669910   -1.09888492999464
H          -1.80359184440788    0.09154605886257   -0.89459810630937
H          -2.77792514172195    1.14657867306570   -1.70092501225848
H          -2.19308917519278    1.50865633319103   -0.21078860587531
