    23
        -45.36197548  Gyration_radius:  2.50560241396 Dipole_moment: 4.527
 S           0.61316207728272   -0.92669981268839    0.19388048236222
O           0.27744413491935   -2.11827983483292   -0.51889211048483
O          -0.50253721011021   -0.03971304030186    0.44143966621007
O           1.71878895796305   -0.14051038017626   -0.53713515758438
O           1.28011950756567   -1.29575559026163    1.51668080497475
H           1.54095044555986   -0.44712339404346    2.01887827031308
H           1.40632657172034    0.05716459395304   -1.48449268537434
O          -1.78545241425968   -2.42315305035272   -2.24005850889152
H          -1.38114035362323   -2.79150390301613   -3.02794009912492
H          -1.09562219284307   -2.44961050085493   -1.55126321544405
O          -1.67741124039567    0.25855816303865   -1.98055898833633
H          -1.44119404493618    0.24610634943276   -1.03704333998186
H          -1.94076553609525   -0.66386097891994   -2.17895483532780
O           1.80563443295500    0.79187636340237    2.87199416175784
H           1.86197852544746    0.51507131763212    3.78931681196859
H           0.95518753717549    1.31796376523948    2.77675144133194
O           0.76187946354424    0.41649299981373   -2.82385694938167
H           0.95026634278293    1.32678739679710   -3.06186772898786
H          -0.22059417888875    0.37638008041479   -2.61067233926370
N          -0.53909404696344    1.94687230032005    2.48034086155380
H          -0.56902696116892    2.88626952851232    2.10481193149406
H          -1.29547830694652    1.85594644359336    3.14706244523316
H          -0.72342153075361    1.30072117326505    1.71157907084993
