    23
        -45.36638242  Gyration_radius:  2.37544383198 Dipole_moment: 7.416
 S          -0.72885831853055   -0.50629028250655    0.77840283364851
O           0.13869276843545    0.47780269269187    1.39768874134194
O          -0.04872219162740   -1.65185108208260    0.25682090206758
O          -1.53700540846021    0.19144659151875   -0.31972507779723
O          -1.80364178515755   -0.93763942557202    1.77831416758823
H          -2.18051245019043   -0.04588451976438    2.11732036090222
H          -0.91143826489117    0.41243994241477   -1.16274855686389
O           0.64548164657691   -1.89420380596275   -2.53096651408506
H           1.52729350306301   -1.89921772229498   -2.10233820500619
H           0.06017469976246   -2.25772839503218   -1.85760791435736
O           0.05514125091243    0.62646894204097   -2.17132456793037
H           0.85037449154689    0.92433057972597   -1.69193039279089
H           0.26013075145725   -0.30320953240431   -2.47847893315041
O           2.01517827823843    1.13539975634089   -0.33153209679336
H           1.38088144989536    0.91110953381054    0.38655885846128
H           2.49309661312109    1.91587292612345   -0.04603669735207
O           2.58580435570536   -1.60705517821964   -0.67710170494154
H           2.67975840879479   -0.64691752883261   -0.61578448502574
H           1.82646658813399   -1.82280116887859   -0.11704130431392
N          -2.36161518639757    1.49135562488518    2.35101079471645
H          -2.88932782256520    1.90104511096450    1.59172384494933
H          -1.37812313100770    1.70364848905895    2.21662051792953
H          -2.67923021679313    1.88187842205108    3.22815542886558
