    23
        -45.35820134  Gyration_radius:  2.36810213718 Dipole_moment: 2.870
 S          -0.40929010569364    1.91319919475881   -0.57880697206386
O           0.45165490474661    2.26808125429801    0.53325346564810
O          -1.47825769689484    1.01331442892185   -0.20966588874412
O           0.36760476567119    1.41549484098346   -1.72075864317840
O          -1.09162586500644    3.24702949043778   -1.07688597864196
H          -0.33510064555045    3.79497499347524   -1.25855120475382
H           1.33939806196671    0.40832357211490   -1.49183715570472
O           0.71031557995728   -2.49115891401088   -1.83328255461782
H          -0.14256884218941   -2.23522049786452   -1.39864375191298
H           0.96752208229947   -3.34097747510629   -1.47194246770242
O          -1.30980132906165   -1.63735679790140   -0.39525854243271
H          -1.20443175541588   -1.76075198581412    0.55241677750270
H          -1.46408287803520   -0.67643919002351   -0.50543730991939
O           1.46186098328239   -0.02373609152918    1.26212802824202
H           0.65788469485109   -0.41158486585149    1.66045434299277
H           1.21733177327033    0.92228558818982    1.12250795395847
O           1.97031321563653   -0.37885729582133   -1.16646959657104
H           1.84857907832966   -0.34049435685200   -0.12821716934927
H           1.54187996399927   -1.24425006790679   -1.50490668654332
N          -1.05793013966413   -0.28401626844427    2.32660635611649
H          -1.35758982596236    0.32190782463610    1.55965028835292
H          -0.81302127273980    0.33076188660007    3.09511486446594
H          -1.87064474781779   -0.81052926728609    2.62853183487041
