    23
        -45.35602694  Gyration_radius:  2.37510102907 Dipole_moment: 4.373
 S          -0.47871216979998   -0.29046616176423    0.97895129603993
O           0.92710554575274   -0.54463720271307    1.23645398321250
O          -1.21663617081919   -1.44582234290662    0.59918816577324
O          -0.55851254267243    0.81857293949576   -0.10260549671745
O          -1.11553424434391    0.39697943813471    2.17627600787943
H          -0.75601616035229    1.35626189715423    2.21360198814149
H          -0.17483624916279    0.46966693398595   -0.97029269256164
O           0.60431157942274   -0.23232705538030   -2.12442268851490
H           0.80676176683180   -1.12779128664378   -1.74464054382597
H           1.44862194600460    0.19504014038844   -2.28694324044552
O           2.24719267804909    1.74046024823096    1.35737049071167
H           2.92062089307072    1.69086997657641    2.03883175749616
H           1.86437993674261    0.84069062926491    1.28136274363387
O           1.03749550765398   -2.41103607488377   -0.71440474333955
H           1.25685844360523   -1.91121656950103    0.08891911212532
H           0.16102834777942   -2.77093269697626   -0.53989092835926
O          -0.12671018653252    2.72349029451886    2.00142855286594
H          -0.52483875337362    3.03534738307567    1.18389419712096
H           0.81436292509753    2.51011183241774    1.78416074488440
N          -2.51029086318169   -1.10047753428828   -2.16457925392851
H          -2.61641027495933   -2.03094231059282   -2.55178476230570
H          -2.33885664788918   -1.20952781266728   -1.17045097409044
H          -1.67138530699264   -0.70231466488439   -2.57042373576085
