    23
        -45.35602685  Gyration_radius:  2.37509978981 Dipole_moment: 4.358
 S           0.38470523547267   -0.32576081079882    1.00747118505008
O           1.20548198368451    0.77948875164386    1.36570752583768
O           1.02620895254409   -1.27422789017799    0.11522410735225
O          -0.92915120832465    0.13676213194692    0.32490872223570
O          -0.14151071450119   -1.04015615800234    2.24215370632673
H          -0.94945412438009   -1.60309506011256    1.95717745763837
H          -0.70743258623778    0.65359724110157   -0.51501480003166
O          -2.13358130340804   -2.28340670179518    1.28992798960695
H          -1.75329626382134   -2.62233128669623    0.44205508603397
H          -2.71191428865976   -1.55400856489238    1.04987220020842
O          -0.77703260536024   -2.92022989997655   -0.89420560064706
H          -0.04025196035751   -2.33419313612244   -0.61928702775700
H          -0.40899289253680   -3.80361898053717   -0.96146223874243
O          -0.12263303087404    1.25857757079834   -1.82817822911199
H          -0.35798825528686    0.72793682661218   -2.59300672022201
H           0.85781002044160    1.15827749176505   -1.70270108494620
O           2.36050109905550    0.69722669959028   -1.16358629248586
H           2.52749377082547    1.21806414234982   -0.37047723908723
H           2.12813577275120   -0.18421079202120   -0.82840494096190
N          -0.08324045030556    3.44571057672598    0.55371980496109
H          -0.34245996286986    3.10546270396414   -0.36500205165123
H           0.29471248773679    2.65738450845078    1.06877882557765
H           0.67389029442623    4.10675061619374    0.42432962484842
