    23
        -45.35602686  Gyration_radius:  2.3746276841 Dipole_moment: 4.406
 S           0.84231839946600    0.38483403834531   -0.65044593393917
O           0.81999704247297   -0.55039056330474   -1.72207082252117
O           1.54536418687719   -0.08458942813016    0.52969318062735
O          -0.59093746577891    0.78099174069572   -0.20899201666785
O           1.40873710372628    1.72170785782613   -1.10171991946656
H           1.12178143496095    2.42923590224834   -0.41779911267898
H          -1.08454418976896   -0.04251250621988    0.10740576826186
O           1.00118270352740    1.48535351156993    2.58296775685569
H           1.22748864286434    0.81516241321353    1.90355158687779
H           1.78557103569038    1.59735528980312    3.12383914605651
O           0.70060301472293   -2.62036720989553    0.13232444954334
H           0.77189397104057   -2.58602720081059   -0.82785237145112
H           1.23658863302468   -1.87145420304926    0.44057617138267
O           0.51390830012297    3.27384630105613    0.69049188462158
H          -0.43069125301740    3.23743261337372    0.51583042579453
H           0.66379805323557    2.72849615147131    1.50198760590704
O          -1.56669451582807   -1.40671282356465    0.68825458906399
H          -1.66068963705103   -1.36615420088785    1.64294691401698
H          -0.80073703413660   -2.01171081928558    0.50292375930551
N          -2.05004994652902   -1.31403390198639   -2.50671103644221
H          -1.10426540374098   -0.94683825284420   -2.49218820941827
H          -1.99982739122932   -2.25001680795063   -2.89189533425666
H          -2.35079567464606   -1.40360789164234   -1.54311849146883
