    23
        -45.37350739  Gyration_radius:  2.30972373201 Dipole_moment: 7.164
 S          -0.73864187217993   -0.38766733099596    0.74281028468416
O          -0.10305900814002   -0.19524250663974    2.02051528355741
O          -0.29448113051100   -1.60529232875383    0.06365625207115
O          -0.34487807776202    0.80284470290009   -0.20642969711204
O          -2.20062377321094   -0.29849700384486    0.77614054785344
H          -2.52847151072118   -0.03335281000782   -0.56497063785339
H           0.67723710998788    0.89472975498621   -0.21518353072889
O          -0.46941580067768   -1.06002031568833   -2.45280806501365
H           0.30540906239057   -0.51144807678545   -2.59945983381655
H          -0.35648157744825   -1.42984203595161   -1.53723006144790
O           1.70990903680342    1.71508729275874    2.40790762704705
H           1.04172436743822    0.99828672261325    2.37268083750835
H           1.27470356048120    2.46217945253596    2.81987964098162
O           2.23481612517752   -1.52865284722436    0.86826347126303
H           2.14747122833457   -1.35846332045073    1.81005785851803
H           1.32994700989638   -1.74032441698263    0.56521419635861
O           2.18175594620366    0.93412850356432   -0.12836186024715
H           2.39850494234828    0.00343781007133    0.11941477633039
H           2.26357658354722    1.42607831529428    0.71075529509111
N          -2.63982592011947    0.18690252722016   -1.65797095792378
H          -2.58624718773102    1.19320264609223   -1.78320829842635
H          -3.51169655819469   -0.18433407357463   -2.02201410105897
H          -1.79123254591486   -0.28374067113674   -2.10965901763721
