    23
        -45.36440554  Gyration_radius:  2.44976530306 Dipole_moment: 5.996
 S          -0.45102268180931    1.37150468250969    0.18494723983328
O           0.41367102498532    1.68408962969887   -0.90572752656175
O           0.23020888926793    0.89496237424731    1.37584460783242
O          -1.50322656060118    0.32270613639752   -0.20904710793296
O          -1.31502707895210    2.58345369212896    0.54645375856022
H          -1.85141908549969    2.25817732590975    1.35450960864508
H          -1.08135145637275   -0.62552713372445   -0.36731075635390
O           0.58836931501514   -1.74896529807135   -2.99357220094907
H           1.08980474385664   -2.45796042094289   -3.39867735388824
H           1.24438493825718   -1.05460137962162   -2.73704773205328
O          -0.37463108360220   -1.89024513859348   -0.53778262820297
H          -0.14467401848611   -1.91549412439596   -1.50098216986711
H           0.47332693798138   -1.76650760146785   -0.07387077292753
O           1.91503280807492   -1.00756903295269    0.70139755364910
H           1.36991143480229   -0.24479837185247    1.00252725268020
H           2.43490029502276   -1.28680602780379    1.45707806275037
O           2.28980273567859   -0.01942795562508   -1.91574684006642
H           2.43143224244679   -0.42049876743555   -1.04655916130025
H           1.71553351655546    0.74407294805140   -1.74092327555813
N          -2.34772578488311    1.33997555221338    2.53602636836537
H          -2.67647200154550    1.69385125545637    3.42453609171529
H          -1.44606201819762    0.88995110550272    2.65861220821675
H          -3.00476712196879    0.65565657049364    2.18531479339259
