    23
        -45.35833690  Gyration_radius:  2.32287178386 Dipole_moment: 2.489
 S          -1.52412252844238    0.19249462668786   -1.10853278294138
O          -0.37436498737337   -0.29656532222187   -1.83661719139145
O          -2.22657926947600    1.25651696808602   -1.73962157636578
O          -1.04343919485314    0.67059021564837    0.30559693372463
O          -2.41805064962677   -0.98272861443223   -0.74664956671583
H          -1.74758789619193   -1.72040529124097   -0.46435674686850
H          -0.60812361472206    1.56066767915539    0.14578373265710
O           0.06031297183508    2.76896463121183   -0.64805582682009
H           0.87815792326896    2.31390713329637   -0.92609148430002
H          -0.54618318199437    2.77909106527220   -1.39685280785423
O           1.47517755191108   -1.29473769120882    0.68656970425331
H           1.70930491655215   -0.54036078467550    0.12985019578045
H           1.15920496475734   -0.91476091890747    1.53742492894044
O          -0.59450316062865   -2.63359735542083   -0.21419283186372
H           0.18654547543739   -2.13664808720737    0.17054288160245
H          -0.31398227145073   -2.89149312403956   -1.09597686588421
O           1.88870377129806    0.84569267888192   -1.27049966935713
H           1.08330881645401    0.36124126198587   -1.56817529716009
H           2.55865724920889    0.70195654305662   -1.94121156645658
N           0.28835795896854   -0.13873348536911    2.85209447534385
H           0.68790033510199    0.64864328934255    3.34638036596722
H          -0.12905206908989   -0.75918834326129    3.53375250681613
H          -0.44964310092698    0.20945290536236    2.24883851890700
