    23
        -45.37998798  Gyration_radius:  2.33830550453 Dipole_moment: 1.812
 S          -0.49427919680067   -0.70219260006487    0.44956410694705
O          -1.20201892955390   -0.00763903814368   -0.60014202475053
O           0.62625884922536    0.10015134630747    0.96180082632424
O          -0.03711169082742   -2.02601812643204    0.04042903795041
O          -1.49497149924084   -0.87707922437497    1.64235425025785
H          -1.09521684703930   -1.57568788439208    2.20416192054225
H           0.51267606813978   -1.64054409556823   -1.52751092707596
O          -0.58915391427144    2.49886187504435   -1.31112968955877
H          -1.06631843577995    1.64895987352709   -1.24636691451769
H          -0.60773954775576    2.82303551812449   -0.38848453966601
O          -0.61937220007790    2.43141958507645    1.39177855189731
H          -1.47915995478853    2.19660824376148    1.74503667664584
H          -0.11140957823738    1.59712749863716    1.36159438434345
O          -0.13795302583424   -2.97432383369207    2.48543832119035
H          -0.59702543767877   -3.81733011009432    2.50160335225513
H           0.12563183136092   -2.82024824576231    1.55512617005335
O           0.70044989328468   -1.17828500795081   -2.37217372018965
H           1.39430500672630    0.23541965416329   -1.86502885450040
H          -0.16866089602747   -0.94673807442672   -2.71205859203889
N           1.58936091797909    1.07133624591230   -1.25433683982178
H           0.81477153492555    1.79967297600049   -1.41325797417052
H           2.52534232268572    1.44106122433844   -1.37689563277098
H           1.41159473958821    0.72243218999275   -0.27150188935546
