    23
        -45.36866414  Gyration_radius:  2.27359128032 Dipole_moment: 3.491
 S          -1.67324730673757    0.80289171480385   -0.48113866432441
O          -0.92906703509492    1.36882052864266    0.63709239480317
O          -1.61524506725532   -0.63840989443965   -0.51355639374479
O          -1.28038512354076    1.42785989428820   -1.74396094552520
O          -3.18946136869536    1.19927484092367   -0.26918411585672
H          -3.19900293336309    2.11258863140443   -0.53795036776902
H           0.11096752895336    1.12318662049582   -2.14372625347814
O           0.67497447315201   -1.56093082587920   -1.44662332303490
H          -0.24983927962353   -1.38873315328319   -1.15708237599324
H           1.19717661681243   -1.61210204356836   -0.62222536105103
O           1.09396550403056    0.79355941509056   -2.17895002546698
H           1.48313363227743    1.13607292631841   -1.26129033691702
H           1.00239615407159   -0.24849956327298   -2.02442740875312
O           1.86010274046319   -1.22095695397716    0.98364845640288
H           2.47091268805484   -1.73533108117006    1.51205262187531
H           0.98366766653059   -1.19138199586989    1.48436544198946
O           1.67785297891977    1.38135675243231    0.18389663327838
H           1.92719965110136    0.51369681690075    0.55646592208559
H           0.74441224798633    1.52348963523738    0.46136273985611
N          -0.50256687215441   -1.01563422240821    2.10624901243100
H          -0.74004010998668   -1.05260182675948    3.08975288011674
H          -1.12638782810219   -1.63782948445399    1.60484945363113
H          -0.72151893779910   -0.08038674145560    1.76038000544533
