    23
        -45.36427711  Gyration_radius:  2.28836552061 Dipole_moment: 3.487
 S          -0.16026673975780    0.87990633494464   -1.31306602092017
O           0.11939029518205    2.27386512717654   -1.46130846274551
O          -1.19603232715006    0.56257947922124   -0.35760598634087
O           1.14307066898619    0.13811329802878   -0.86922708150419
O          -0.45658182430270    0.22850991356457   -2.64817542740593
H          -0.90705678991599   -0.68785319635707   -2.42159523575187
H           1.41512528869125    0.48788357986070    0.03231750826569
O           1.67144840081979    1.21952116595936    1.41464668405812
H           2.46768702634442    1.75336428421979    1.36580024392752
H           0.91028799822727    1.85940777903701    1.44653604980837
O          -1.51344407917109   -1.85767967999679   -1.77774355741260
H          -0.74552175224214   -2.32354951927410   -1.33440287513715
H          -1.99175843489026   -1.41055811512809   -1.07071607513989
O           0.58223158536079   -2.66640194015299   -0.44744063152928
H           1.23559380154261   -2.04869356493650   -0.78910976703976
H           0.32820110011396   -2.30561641289953    0.43879146709227
O          -0.39163231054316    2.81610552249744    1.10247380096439
H          -0.21161064987393    2.95339994002238    0.15462492775848
H          -1.16656351073824    2.24489720968949    1.11326260924331
N          -0.20045950236043   -1.24575263309593    1.70657425930625
H           0.58418805223006   -0.74693000166634    2.10914262851693
H          -0.79834332361288   -1.54808328639181    2.46502718048400
H          -0.71795297293108   -0.57643527429515    1.14119375147884
