    23
        -45.37533689  Gyration_radius:  2.37601336171 Dipole_moment: 5.073
 S          -0.67994814236235   -0.44412155383692    0.46055320912228
O          -0.28351199897326   -1.75821651218868   -0.00181329923871
O          -1.19715539752937    0.34154017751116   -0.68464293326892
O           0.40926709077998    0.27489544837406    1.11004379011443
O          -1.83658531139221   -0.60043143858666    1.47383554650214
H          -1.81020320844947    0.24558800881428    2.02083871406976
H           1.80146272821769    0.30653300687748    0.16152669865829
O          -2.21294851400170    2.63894761437766    0.18564321989349
H          -1.81857774177444    1.83687846115957   -0.21835947966030
H          -3.15199827452914    2.59809158236060   -0.00361240668360
O           2.45201973257375    0.06650318941324   -0.53931904128661
H           2.69180509445465   -0.86074341232657   -0.32463157114507
H           1.51211464652284   -0.17351949180543   -1.65902077629720
O           2.24151523746170   -2.53591053522505   -0.00287936029807
H           1.27654816057714   -2.34758476351331    0.03148995597200
H           2.45945572735488   -2.93420244073220    0.84098323504716
O          -1.38918772622213    1.67430774303639    2.55744301881090
H          -0.46803907541148    1.48533556908599    2.32144449241489
H          -1.72484344926738    2.25036543392578    1.83853444812863
N           0.64996770147561   -0.44925993560574   -2.29357144665214
H          -0.19749571019917   -0.06075668890101   -1.75689021344030
H           0.56269132020878   -1.46411491993634   -2.27675363764895
H           0.71364712046459   -0.09012454230618   -3.24084216312740
