    23
        -45.37613660  Gyration_radius:  2.4377869993 Dipole_moment: 4.737
 S          -0.52889179570924   -0.59420815605215   -1.00138173177039
O           0.86832005547240   -0.39585543522520   -0.61323519742950
O          -0.72584700107420   -1.67384342011761   -1.93154347078807
O          -0.95934739794663    0.75984078637859   -1.71754889143977
O          -1.38028483079546   -0.66596970405489    0.18301575220544
H          -0.98251593201385    0.39728351560860    1.20286193105554
H          -0.78104200519840    0.60475500724400   -2.67100364047351
O           0.95295431311656    2.16544670774816   -0.10614222035785
H           1.11729633386986    1.22173238578485   -0.34575135447058
H           0.42085279219281    2.50632642521686   -0.82996922222646
O          -0.46428843819515   -0.25222743564047   -4.09535484471314
H          -1.19802079657838   -0.42166590422907   -4.69060531856118
H          -0.44243155963734   -1.00646470161574   -3.46644996552319
O           0.73161838229423   -2.17920772522825    1.35228845286713
H          -0.21019646630656   -2.33870691871530    1.24202729253310
H           0.97154404466440   -1.61460665555701    0.59076073352418
O           1.14045889737411   -0.37559219312854    3.23653029608666
H           1.01094900741916   -1.16191219837968    2.64504724099655
H           2.06961212836241   -0.14914545962189    3.16416762185899
N          -0.53319335085141    1.13838482933954    1.83403906690085
H          -1.23511315956229    1.67095587883661    2.33537060985196
H           0.04378395282650    1.73856380324155    1.18678546195339
H           0.11378279627656    0.62611655817135    2.49609139792176
