    23
        -45.37613644  Gyration_radius:  2.43826486987 Dipole_moment: 4.742
 S          -0.94046078780540    0.84710455755936    0.17422951151963
O          -0.17484068640887    0.47611374507352   -1.01670537384364
O          -2.18851621544869    1.50049132926517   -0.11741859677855
O          -0.01604771398615    1.87555509391138    0.96114455990741
O          -1.06332746063927   -0.29514814421402    1.07600292273372
H           0.26113145654720   -1.04474858779383    1.18534083621292
H          -0.29671845434911    2.76035849627243    0.63967625848614
O          -1.43086212575870   -1.85087944292509   -1.28137316654064
H          -0.99167029120308   -0.98483939430702   -1.39682725659079
H          -1.93781784373918   -1.75336149981645   -0.47012231991422
O           2.29014060879442    0.58753253920080   -0.15871483189289
H           1.44118085795210    0.59192895171760   -0.66294522375722
H           2.25634070325553    1.38733547024023    0.37277523568102
O          -1.26529353293704    3.93317247392514   -0.10133606371727
H          -1.80815949584702    3.14287324508112   -0.31485241636576
H          -1.81001131748541    4.48740229687741    0.46214634875116
O           0.75211519356087   -3.26586139439679   -0.83074163169711
H           1.27717039875276   -3.17039334024072   -1.62767091894773
H          -0.13358180446572   -2.87358357452836   -1.04667190014257
N           1.22960805763990   -1.49536295884888    1.09226673884374
H           1.13697255801226   -2.27895759888188    0.38756334381226
H           1.56602718983815   -1.83489770608158    1.98629573174157
H           1.84662068571452   -0.74183454708933    0.68793820249343
