    23
        -45.36078173  Gyration_radius:  2.49015046003 Dipole_moment: 4.792
 S           0.04181901927908   -0.75003520942415    0.99862830312196
O           1.33134391830840   -0.11397821201498    1.04386265923096
O           0.06190134225179   -2.17275926368287    0.84538414780277
O          -0.78418487875126   -0.11274175592605   -0.14412886332473
O          -0.77887587569822   -0.38653112126748    2.23801638298766
H          -0.72289075327081    0.61434878533203    2.38299161594848
H          -0.34501534241645   -0.37875049578714   -1.07608577702117
O          -0.84537632382169    2.14992809715693    2.54578176300010
H          -1.56638019425716    2.33201163030822    3.15266263954133
H          -1.14351000876425    2.44982066507834    1.64067894549723
O           2.74963094727980   -0.53104625984483   -1.14262047516648
H           2.33482425024315   -0.42291475677332   -0.25875569754360
H           3.35505815415372    0.20551485535887   -1.24307712549717
O           0.23196190559693   -3.35257415360898   -1.55110920948080
H           1.09291260156421   -3.77623466809790   -1.54619741139320
H           0.07105396409111   -3.06806789488128   -0.62967731559435
O           0.34657876267567   -0.79932989665672   -2.24759256606789
H           0.22212676141634   -1.77848929950757   -2.20668415101198
H           1.29404182783952   -0.65854093177095   -2.01726268192638
N          -1.68629403434997    2.67131179881830    0.07047751127376
H          -1.50908673478533    1.71304534639311   -0.22294746342111
H          -1.09988019097708    3.27663807875861   -0.49003558352880
H          -2.65175910762204    2.88937465204427   -0.14230964741616
