    23
        -45.36398383  Gyration_radius:  2.46607756384 Dipole_moment: 2.251
 S           0.90201873185718   -0.73951708484018   -0.09581933681697
O           1.88855571159695    0.27533704172207   -0.32274382918129
O           0.17687389029605   -1.17859388887074   -1.26090461475702
O          -0.11881870328755   -0.25630134140331    0.94685975815298
O           1.57366585797632   -1.94794456800131    0.57481298431483
H           0.83286411796259   -2.50461968763382    0.99627153075640
H           0.23612977699197    0.66442135914410    1.34644428817788
O          -1.62395574855388   -3.08757609480179   -0.85224598908012
H          -1.43826856896414   -3.78910889039749   -1.47945603845482
H          -1.04756740887107   -2.33579825940223   -1.10346870228489
O           0.17807957279097    1.49894579821255   -2.06974065903612
H          -0.22959320897358    0.63610316598138   -2.19758886820138
H           1.02815160544553    1.29305507426875   -1.65777701656601
O           0.86840408609761    1.90254788917353    1.63368486659349
H           1.66514800620520    1.73311153874973    1.11316535064633
H           0.31221758502496    2.54961639890205    1.08241339260992
O          -0.49630228932828   -3.07055429402370    1.54020309756949
H          -0.89471404935402   -2.30464471982442    1.96425929617383
H          -1.01962683643825   -3.22285329384453    0.71574035290011
N          -0.56036428530198    3.36983160428336   -0.00650070901568
H          -0.25631770842479    4.31256686392279   -0.21388989687087
H          -1.55187529352574    3.39789473548750    0.19334099177916
H          -0.42470483175877    2.80408064361043   -0.84706021954523
