    23
        -45.36398365  Gyration_radius:  2.46583239788 Dipole_moment: 2.251
 S           1.10611092506909   -0.08168145335039    0.37402246110798
O           1.51928393680699   -1.02418837138381   -0.62380582054719
O           0.47060976406460   -0.64276312194822    1.53917068673951
O           0.14705508577679    0.94935564528813   -0.24215430382200
O           2.32124566340618    0.75371640737316    0.80592445163465
H           1.96116840093858    1.59036749332707    1.26061314071741
H           0.12878816729145    0.78820063344134   -1.29454525236650
O           1.09918591384639    2.73412688465658    1.83599098222102
H           0.57196026255727    2.27593941935688    2.53525546989272
H           0.48221680343452    2.91470388837639    1.12051548653322
O          -0.26202605651129    1.09815320345506    3.40622520304287
H          -0.10567654171495    0.38129269786278    2.75646293082202
H           0.10742506191190    0.79234256150091    4.23685126354693
O          -0.78680743717868   -2.43138577100303   -0.20377410303551
H          -0.80077937141981   -2.04525684524552    0.67820457754083
H           0.12044527381530   -2.28528920133785   -0.50431664779073
O           0.20521851085476    0.30764317972923   -2.62776415734121
H          -0.64926796578077   -0.23722653580496   -2.69911533805427
H           0.91086342258074   -0.33267200860515   -2.46491763061029
N          -1.93908722725498   -1.20162948344799   -2.54039222024495
H          -2.80590832454391   -0.70964593209351   -2.36606827554338
H          -1.70059470242265   -1.72736438601849   -1.69669741249101
H          -2.10142956551944   -1.86673887413953   -3.28568548201341
