    23
        -45.37261446  Gyration_radius:  2.32282573247 Dipole_moment: 5.601
 S          -1.29826755187389    1.48997650033877    0.22046680781025
O          -0.10855804050367    1.31083443562454    1.06429957046765
O          -2.37088720245875    0.60343981423723    0.61412752613575
O          -0.97786101603320    1.42936479202741   -1.18565958311894
O          -1.77246017809712    2.97523585535780    0.52288300654507
H          -2.48480989586054    3.08371509969893   -0.09874217247586
H          -0.60607939425308   -0.13437295971208   -1.78466571754928
O           2.21914130270279   -1.12156026654251   -0.60040216657491
H           2.25936756588042   -0.13590056390390   -0.55935260673621
H           2.93914925634527   -1.40380213524398   -1.16545880174832
O          -0.36182871396725   -1.07671954394545   -1.88291605159266
H           0.56250142850837   -1.13598791530575   -1.60571705382220
H          -1.43171576787913   -1.81509757655540   -0.75486830386933
O          -1.81996356025569   -1.93377772697828    0.14537765460802
H          -0.59399360350896   -1.68436052454313    0.93646622716593
H          -2.26222728798622   -1.07492288091542    0.32582134478562
O           2.12418679512139    1.51009868711060   -0.32759277893971
H           2.67561425150693    2.09387054316660    0.19580020597587
H           1.22972943520076    1.54595115790137    0.07775120250938
N           0.31866759749824   -1.25947346043285    1.38688238405674
H           0.48740773158227   -1.60817694616228    2.32352242730898
H           0.15488003382793   -0.21320077926699    1.38831297816306
H           1.11800679449949   -1.44513363595775    0.76366389089345
