    23
        -45.35368109  Gyration_radius:  2.41567615167 Dipole_moment: 4.228
 S          -1.35661988139881   -0.26889131624262    0.29043211191152
O          -1.53152580330277    0.93038295617063   -0.47077542026653
O          -0.57146728840487   -0.15869995210278    1.47453944331115
O          -0.76196619746972   -1.36535986785438   -0.65128868114326
O          -2.72281077999408   -0.89241822011392    0.64628138772114
H          -3.14834081677424   -1.10167678836355   -0.21876103365617
H           0.20632369708963   -1.10119771172812   -0.89342081695834
O          -3.23750783018925   -1.71875756380121   -1.77428511136151
H          -2.27187947231952   -1.73402013899618   -1.82574874464779
H          -3.54155958994831   -2.62945755841432   -1.81127465706040
O           1.54874245369465   -0.57675519970569   -1.25526985258873
H           1.41047370093182    0.43997209583253   -1.14536306392155
H           1.77120230951027   -0.71902476257823   -2.17778157664884
O           0.98207603493323    1.86675802096826   -0.92944495613373
H           1.28350838840335    2.06435256605941    0.00127001887152
H           0.01727898561854    1.77065856985636   -0.86473531344703
O           2.15789022164179   -0.86496927744504    1.56677231837892
H           2.24450638941960   -0.94385080797380    0.61132899417253
H           1.21204912996130   -0.74898150928071    1.73004990888702
N           1.56862254596973    2.02193619378298    1.66039831577155
H           0.66025356449036    1.71515400698174    1.99317903738294
H           1.88454830692900    2.78267356025030    2.24826763608562
H           2.19620193120532    1.23217266469906    1.79563004534091
