    23
        -45.38307853  Gyration_radius:  2.27816080991 Dipole_moment: 1.780
 S           1.36300839565599   -1.00171997831478    0.81647449775516
O           1.80869760760216    0.23294515783204    0.20436275381994
O           0.52492742155381   -1.79136340398308   -0.09351440069851
O           0.72242629360834   -0.82539458414269    2.10080434089584
O           2.66545741818678   -1.86188762643794    1.07486650947148
H           2.36982524664676   -2.47549854832082    1.73910255964708
H          -0.65121143631310    0.17724570062689    2.23194797204934
O          -1.15118335500184    1.06683007918439   -1.95708433517360
H          -0.78150196899251    1.70364106408180   -1.32280169489722
H          -0.37414576698336    0.57100715066046   -2.30680645463587
O          -1.41351470643864    0.73810435841115    1.97164304642266
H          -1.01436041134490    1.49900434667951    1.51798612194034
H          -1.89031172582427   -0.14006712528713    0.73956291160156
O           0.12088998390632    2.22591065801308    0.21874397711101
H           0.61457214214262    3.03815283406584    0.34117494222734
H           0.78820612509014    1.49585625230907    0.23178945446868
O           1.04539783403712   -0.41433414429379   -2.34175008782834
H           1.72589875975099    0.11251371591492   -1.90824681169915
H           0.85001574567213   -1.10654841428646   -1.68492344043949
N          -1.87589598920959   -0.69702629009708   -0.17043113009190
H          -2.70379134830094   -1.26909729869904   -0.28959143117956
H          -1.00099076160413   -1.27986828910714   -0.13917513819774
H          -1.74241551390083    0.00159436505962   -0.97413416260544
