    23
        -45.38307853  Gyration_radius:  2.27813848352 Dipole_moment: 1.779
 S           1.07006276022196    0.19051030028061    1.53183342204291
O           0.87008480278861    1.44713090814906    0.80046054649521
O           1.46651272474693   -0.88883588623734    0.65110992532056
O          -0.06901937822109   -0.11841691796095    2.36732908989270
O           2.29204116440631    0.43671753404193    2.50606367746350
H           1.87898545579969    0.89258416821908    3.23192896977002
H          -1.54451953029111   -0.57961769049901    1.64703477259283
O          -0.41922268190096    0.00826761872264   -2.47344557099913
H          -0.48775666730638   -0.87112107644664   -2.06531398489860
H           0.51621823818248    0.28561786527489   -2.33204849219930
O          -2.22557377434670   -0.74350047940057    0.95945131318103
H          -1.95352994419045    0.56111625295642    0.09858076313330
H          -1.83921832049686   -1.42950816904086    0.39009817038651
O          -0.44125442780499   -2.09375849200418   -0.66378585585545
H          -0.22222722252061   -3.02458500198544   -0.72737616367637
H           0.29350786564268   -1.67455929482100   -0.15106097542640
O           1.98883020446797    0.68870213179294   -1.52208423850189
H           1.68290818151415    1.18388418654667   -0.74101476702211
H           2.30224860962469   -0.14128775695060   -1.14590895699490
N          -1.44629568535560    1.31678312275179   -0.45824560031854
H          -0.56566852764015    1.52809204047960    0.07658939004215
H          -2.01187479696163    2.14679780447510   -0.59273486740423
H          -1.13523905034448    0.87898685163011   -1.38746055707515
