    23
        -45.36596489  Gyration_radius:  2.40377996244 Dipole_moment: 1.822
 S          -0.03633398605024    0.30660481791040    1.54716709328647
O           0.16217950078722    1.30157991227802    0.52125198606697
O           1.15632377587662   -0.39156123203431    1.93705500004339
O          -1.11121935143716   -0.68590661459747    1.07812995466727
O          -0.69465323067768    0.95066264933819    2.76904832886672
H          -1.48408171092341    1.46844031132640    2.35537621644651
H          -0.76922920798123   -1.33510527034852    0.32598157591002
O          -0.29687697896311   -0.55305030942374   -2.86282934122086
H           0.01374125643520   -0.86994947078942   -3.71229269551329
H           0.42187580655637    0.02372867517991   -2.50167343234740
O          -0.18820129836537   -2.13880722995075   -0.74024134631897
H          -0.35448164362144   -1.61930662463292   -1.56573799931237
H           0.77479178645222   -2.08996993171866   -0.58749047522156
O           2.39910200245732   -1.54972498399739   -0.07195921938412
H           2.03835836877374   -1.10406002924189    0.72779775221578
H           3.09076191054864   -2.13781128369174    0.23672834649181
O           1.69162998072925    0.69686108955987   -1.63437074307961
H           1.19444110182151    1.08965629719260   -0.89509239810212
H           2.18676617783046   -0.03573098156920   -1.24280453990610
N          -2.44361377601730    2.09397376467256    1.30189232443635
H          -1.72944473841955    2.15621070224081    0.58175135458562
H          -2.87978938568264    2.99784569983923    1.42744465931073
H          -3.14204637009215    1.42542005252114    1.00486758806991
