    23
        -45.36822379  Gyration_radius:  2.35747495205 Dipole_moment: 7.531
 S           0.08262634120381    1.13117255905157    1.12588019671436
O           0.43234234709236    1.18368928198276   -0.29713741905285
O           1.21647802634374    1.12531129698345    1.99833788080581
O          -0.71691953172696   -0.23576911245119    1.30431186474197
O          -0.94784184847930    2.12354894637999    1.45198209432351
H          -2.05260213901759    1.64387439187317    0.74782910418901
H          -0.31978286318164   -0.93804775058555    0.73806916929364
O          -1.39290052289191   -0.08562736459129   -1.62126285713543
H          -1.13052856924933   -0.98975538763951   -1.40258643376631
H          -0.62900448304577    0.46044378870408   -1.30705526041814
O           0.07720491875639   -2.15146447357911   -0.33025804063467
H           1.04817768687997   -2.02581688720815   -0.52806188134969
H           0.01716343012607   -2.99005422714146    0.13080413222302
O           2.63297504268368   -1.84981270644010   -0.75836951798663
H           2.91594350605845   -1.83383186356876   -1.67418799502740
H           2.86103355401905   -0.95097492105563   -0.39538840930514
O           3.00381953434220    0.62163673801786    0.03646205864676
H           2.86909078092418    0.74175144204839    0.98709001620361
H           2.16299903309888    0.95564995348643   -0.32822221746858
N          -2.87605478861651    1.14144300258332    0.16380944231301
H          -3.35853816733585    0.50653384226687    0.79215494592489
H          -2.37978927708887    0.58859066647156   -0.61050272056299
H          -3.51589199103590    1.82750877447879   -0.22369816265621
