    23
        -45.36198533  Gyration_radius:  2.3002763425 Dipole_moment: 7.321
 S          -0.95036053414957    0.17317550475756    1.73594450197647
O           0.45154248435968   -0.07641203365158    2.07075088452215
O          -1.88785080440149   -0.16916411980275    2.75113598468545
O          -1.24366268032997   -0.72812723052816    0.44486253382035
O          -1.11723045696278    1.53901417845579    1.19689421819831
H          -1.72900282560654    1.44923000915719   -0.05293185774978
H          -0.71534687673639   -1.55458692993806    0.59325992765930
O           2.26705461127229   -1.36837919287995   -0.89527266923032
H           2.23190750912229   -0.47851039111036   -0.51009106311608
H           3.18638937306068   -1.63847362999290   -0.88112057735307
O           1.59919969826340    1.13342293332039    0.13111079804978
H           1.15541189449788    0.68790295199550    0.90902691830177
H           1.60058563980418    2.06557920207336    0.35487435730704
O           0.21276524632901    0.51809087684715   -2.08949405931458
H           0.39166893346694   -0.42660154792519   -2.11865848307723
H           0.74236087677083    0.84283196059962   -1.32605946845326
O           0.56400838834515   -2.50725175418773    0.97449357913317
H           0.74977572137127   -1.85060394415966    1.66732591816972
H           1.18593209782433   -2.30231267087316    0.25335775691306
N          -2.11948526994504    1.24320438404204   -1.08615402189621
H          -2.76105798907204    0.46038111038807   -1.00190984451661
H          -1.25213293018619    0.93369601569319   -1.61661380413058
H          -2.56247208710659    2.05389433772227   -1.50473152989727
