    23
        -45.37488840  Gyration_radius:  2.32631836974 Dipole_moment: 4.493
 S          -0.76802926427973    0.53451507096818    0.96370792651382
O          -0.64351709668384    1.77003328775455    0.20164182979603
O           0.50306448189519    0.06952333474386    1.48014813208785
O          -1.42771980993784   -0.50864291030059    0.16069917584212
O          -1.71391740640707    0.84624633783199    2.16924634601689
H          -1.93706218467820   -0.03056955543493    2.54115330165477
H          -0.98665080129916   -0.20480880882897   -1.41740581784229
O          -2.24044998831861   -1.75291847195751    2.34305767132134
H          -1.91855442758117   -1.56792530271661    1.43874472768623
H          -3.15616575915131   -2.02743305489169    2.25629881643198
O           1.95115180073601    0.08266538880383   -2.03256159264168
H           2.17128708565633    0.81314371555698   -1.40571430846125
H           1.95028122258401   -0.72153444266260   -1.47132061634845
O           1.52987262272533   -1.74889122942157   -0.13775211671087
H           2.09695511301814   -2.31255268833374    0.39057683858324
H           1.10384601373596   -1.12651147157156    0.49323873828018
O           2.04563780394254    1.83555291649477   -0.02324477887516
H           1.10186018337702    2.06597532297471    0.04314481452525
H           2.18233920516674    1.26173243870294    0.73857359413277
N          -0.58360959392634    0.50262947029198   -2.07974787251427
H           0.49176551839735    0.29614689736888   -2.19994924431056
H          -0.66334776439361    1.36019517236528   -1.49577767874187
H          -1.08903695459470    0.56342859228631   -2.95675789642352
