    23
        -45.36638234  Gyration_radius:  2.37512217625 Dipole_moment: 7.406
 S          -0.55739484948353    0.49699759452978    0.91653209021244
O          -0.32659070905708    1.43835867813390   -0.16280119884410
O           0.63241972104939    0.01858460118929    1.55089838101747
O          -1.38497617195538   -0.66860506458290    0.36639888569014
O          -1.49257675113725    1.12777696300062    1.95036472138602
H          -2.27383502172286    1.47115673510910    1.38136853449412
H          -0.78384715293178   -1.28760478446962   -0.27034737453659
O           1.34560514547970    0.34474890010394   -1.88074193326324
H           1.38360851890077    0.84673822591536   -2.69664333438056
H           0.75794802757499    0.84210773130897   -1.26787235152027
O           0.15059574449973   -1.98105921090600   -1.07352174175136
H           0.64084555699082   -1.28153625388695   -1.54372056957992
H           0.78995022996463   -2.34733466871608   -0.39700106683443
O           1.83260595895019   -2.51222314032296    0.85537474934369
H           2.53857865609118   -1.87716600380740    0.61072168428449
H           1.35772205226618   -2.06666783820872    1.56525646932735
O           3.10055488197844   -0.20628670027630    0.25922237011195
H           2.42686287624266    0.11008949149016    0.87802165329512
H           2.75497411490550    0.00342485346024   -0.61894017816445
N          -3.14433171504335    1.84513421515528    0.13467903560231
H          -2.34491827423431    1.99549481037755   -0.47264429863402
H          -3.75123665009814    2.65370763554375    0.10774404836907
H          -3.65256418969729    1.03416321989351   -0.19234856573964
