    23
        -45.36440536  Gyration_radius:  2.44920245838 Dipole_moment: 5.979
 S          -0.89279999471445   -0.65463616224344    0.94646438401649
O           0.12957060290784    0.09852996228045    1.65128002944373
O          -0.43432633516374   -1.87413948517982    0.36548971740751
O          -1.52170406193237    0.27273891889258   -0.10571683326491
O          -2.06760965998863   -0.92169511800920    1.89242263285123
H          -2.27915202950528    0.00397861070053    2.27293039546025
H          -0.80911524550955    0.66242529711643   -0.77090870067855
O           0.62972211352906   -0.80047141217362   -3.36286314653005
H           1.27466334054250   -0.75809123479931   -4.07027420967995
H           1.00893958855278   -1.40150259863990   -2.67489787377574
O           1.71814055318699   -2.06667310797567   -1.29919411680783
H           0.94177371303865   -2.25472290837855   -0.74672216851932
H           2.16370562300482   -1.33438398199125   -0.85013402038761
O           2.25137156738989    0.31738520188794    0.11375855531787
H           2.97259440664144    0.73849929857995    0.58471516288374
H           1.52457953201988    0.19396699929593    0.76655069000131
O           0.27895025419022    1.14677341881583   -1.61328458595789
H           0.31432918661234    0.50022254906742   -2.36306749813005
H           1.08756418542915    0.98381688281017   -1.09460202510119
N          -2.15869654802879    1.54533615957689    2.58281576131957
H          -2.55849647846407    2.07873822717537    1.82214657193100
H          -1.14781265809252    1.55765843102460    2.49042914745460
H          -2.42619167562576    1.96624602212548    3.46266214070048
