    23
        -45.36768244  Gyration_radius:  2.32355047487 Dipole_moment: 6.970
 S           0.57385745202484    0.12829120365639    0.41165793484012
O           1.88617164674681    0.57113693108395    0.02778441006878
O           0.48010982409809   -1.32528292715553    0.55218893737607
O          -0.44842021315616    0.50767173754636   -0.72840872234409
O           0.01886603118183    0.79660137871848    1.59615367175387
H          -1.40114928422828    0.66647156530397    1.43212316131492
H           0.04863490010307    0.40494573694525   -1.59791285019981
O           1.09451214098895    0.17048262657957   -2.74813373243388
H           1.72820798202231    0.87357368649915   -2.57972348233804
H           1.52425002608821   -0.66009575437506   -2.42662430056449
O          -1.92165358923625   -2.16103183152535    1.08199052467027
H          -0.99107746819493   -1.93896816708663    0.81128583556695
H          -1.83643565506734   -2.71955649994815    1.85706984816079
O           2.23835634321153   -1.82947649086222   -1.40864780762215
H           1.57850854600709   -1.83967162717577   -0.68962535694416
H           2.98523824828239   -1.34947954623142   -1.03932449200229
O           0.93770292090717    3.12710686809478    0.24439233339822
H           0.51478306238748    2.91386307388881    1.07966163088674
H           1.48473547386161    2.35248980773181    0.05676059292321
N          -2.42931219988163    0.41093743771361    1.11043648882601
H          -2.44068170732560   -0.65081263979196    1.14689964146407
H          -2.47248681155155    0.70641163075644    0.13517507623072
H          -3.15271765928320    0.84439178962188    1.67482066698828
