    23
        -45.37911005  Gyration_radius:  2.28560681633 Dipole_moment: 4.301
 S           1.80976216363869   -0.16512805612139   -0.66614335092138
O           1.57319676343245   -0.69835938539457    0.67284069783552
O           1.99628323736745    1.26751531057097   -0.67915781726193
O           0.79149199651767   -0.60789977237016   -1.60924807601679
O           3.18024937537386   -0.80808215320989   -1.13541163979815
H           3.44658970590304   -0.23288180054807   -1.84552598403150
H          -0.69376593314372    0.32558677742389   -1.67779139664596
O          -1.49894197243142    0.81914860450536   -1.43461900092561
H          -1.97607109521464    0.24691144779307   -0.81855765125682
H          -0.79455342778831    2.18528771883270   -0.62802289838779
O          -0.29658526350424   -2.49033004983934   -0.13788399200127
H           0.41209090778943   -2.37740667336523    0.50787304737598
H           0.01698350187964   -1.94245455496744   -0.88803427388803
O          -2.23163660373483   -0.94452739591742    0.70329283638227
H          -1.55295736974639   -1.60027505151912    0.37366965511693
H          -3.03437772882607   -1.44171019348008    0.86292172318934
O          -0.18606005214046    2.59785603530790    0.02850149731053
H           0.70667224069360    2.33393709864703   -0.28138346448581
H          -0.33230787587061    1.60601919243942    1.14035807851372
N          -0.34493419619388    0.70690709531505    1.76650691523354
H          -1.19704333961098    0.15836070381247    1.54971439858467
H          -0.28147615501043    0.92471460571821    2.75447229172121
H           0.48739110065227    0.13681048632891    1.44162839435987
