    23
        -45.37175358  Gyration_radius:  2.30682121653 Dipole_moment: 5.767
 S           0.40555607218343    0.33860217572091    1.57277254511058
O           1.28724823319574    0.72642893918909    0.47371315503817
O           0.99757992753151   -0.62747887816906    2.46050803053558
O          -0.85232493143167   -0.35889162651423    0.86856531386955
O          -0.20925179171379    1.49124468936189    2.22172623968383
H          -1.18424393496870    1.95667728745719    1.24383773570439
H          -0.51021325255370   -1.15667064296653    0.41188417922315
O          -0.52110042116946   -0.81997387051380   -2.54258119748694
H           0.13680726150775   -0.97431071160281   -3.22315538558677
H          -0.31423585571362   -1.43336459815718   -1.81877943007050
O           0.26252941324777   -2.41812802436153   -0.40509875536208
H           0.04595762004630   -3.26894514633437   -0.01991674477560
H           1.19862788085938   -2.20270316742820   -0.10426864802390
O           2.52521282696471   -1.64176334623962    0.57821730735831
H           2.15761538288540   -1.48862526576584    1.47322929378559
H           2.54115230768662   -0.74085456342414    0.22089505824253
O          -0.17229159067586    1.65025292427565   -1.46885988440793
H          -0.39918858737137    0.81863863434884   -1.93485675269572
H           0.51137577801480    1.38216429073730   -0.80480902506269
N          -1.85610554945755    2.16951596312279    0.40437575666481
H          -1.22633799357279    2.00719401232938   -0.47906566473903
H          -2.22517275153405    3.11357168175779    0.44869116293986
H          -2.59919605394707    1.47741924317495    0.42297571005342
