    23
        -45.38023217  Gyration_radius:  2.32664101339 Dipole_moment: 3.133
 S          -1.39720708679590   -0.28972703426225    0.06740246918256
O          -0.55111464009766    0.29158689749471    1.10921409458086
O          -1.16899579387055   -1.70223022379893   -0.08804873414158
O          -1.19673450840149    0.45122459639927   -1.19461002800711
O          -2.88441490348089   -0.08427340477749    0.48801004935724
H          -3.01659078742958    0.88061468112435    0.39721337542910
H           0.34011653871593    0.29919462398595   -1.52844680399090
O          -2.74709068621916    2.40758551377506   -0.39219214845586
H          -2.05694172358847    1.87643460164446   -0.83954595217417
H          -3.39477379409179    2.63677117148219   -1.06248321785130
O           1.37480031833159   -2.28869456167630   -0.53327620310780
H           0.39528015270778   -2.31337948272978   -0.48108271829514
H           1.63934781311955   -2.09573609081353    0.38812289773344
O           1.40649761299821   -1.26985528630591    1.97458968029514
H           0.62239728254849   -0.73284277640571    1.71615187909420
H           1.09537425590877   -1.87441788148268    2.64967124991505
O           1.84976262061053    1.41357318869790    0.77560275726825
H           0.90361884841352    1.25925979197642    0.97789177535043
H           2.32002936463556    0.82974205546669    1.37979741980058
N           1.38481741878547    0.13085627504734   -1.49780298287934
H           1.82803414790534    0.35276705743870   -2.38227153158106
H           1.50527723586763   -0.90262087326450   -1.22113539812556
H           1.74851031342299    0.72416718097967   -0.70277192939656
