    23
        -45.36311439  Gyration_radius:  2.38269058909 Dipole_moment: 3.324
 S           1.07605590090021    0.71211269193868    0.02977713289856
O           2.07512086194701    0.39405064422352   -0.94134502177545
O           0.56233922785585   -0.43249427147056    0.75004911123062
O          -0.10598928150327    1.45750806528620   -0.62553905011773
O           1.61347948508462    1.74307130140997    1.01335412964691
H           0.86294455028230    1.96434763797793    1.67486588069471
H          -0.59355740754665    0.83691103822231   -1.27452704936560
O           0.96736392832977   -1.48092866898841   -2.56076854980853
H           1.55891750338722   -0.81194514734877   -2.17457384585732
H           0.94732659797644   -2.20003878808127   -1.89744958568045
O          -1.21146700779879   -0.13626755534526   -2.25157570820115
H          -0.43412414980534   -0.75355578488703   -2.42946995771822
H          -1.39772046095434    0.29864637800310   -3.08691264023407
O          -0.28361717866898    2.11564779279772    2.65396330072223
H          -0.02868979531672    1.67350795511144    3.46716887088304
H          -1.03090520623615    1.57154778992390    2.25731926124640
O           1.05696671081438   -2.89246880762074   -0.25771989406252
H           0.82181865041522   -2.06085468918050    0.19456703941048
H           1.95392957535934   -3.09763493350825    0.01211757297536
N          -2.01453970617326    0.47076995818576    1.52912291571150
H          -2.69870959207855   -0.10872151736360    1.99881246883599
H          -1.24881067879429   -0.12386110964841    1.21679862937271
H          -2.44813250747788    0.86065002036240    0.70196497918903
