    23
        -45.37304288  Gyration_radius:  2.28346075093 Dipole_moment: 2.997
 S          -0.73863438733158   -1.45967424696473    0.61746963483481
O          -1.24855196470260   -0.15027159616110    1.01953707353656
O           0.68769577623603   -1.59638811539503    0.85055673951496
O          -1.12678281043086   -1.79817325238551   -0.73478309693492
O          -1.45848073473355   -2.49574672976959    1.57238504104482
H          -1.18695907152869   -3.32464749366626    1.19302027133214
H          -0.84969777107976   -0.88372862949778   -2.17064207315606
O           0.63407604958417    1.81156367553357    0.88393068308221
H           1.38565626063539    1.59625272565302    1.46107884570716
H          -0.03788449556190    1.16014779193642    1.15290234581854
O           2.31705774050788    0.11811248259538    2.19160562257724
H           1.71794492209613   -0.56280935751711    1.83082574727515
H           3.19959006009221   -0.14497869007921    1.92537901107089
O          -0.53410634370894   -0.09222464179749   -2.65859988374948
H           0.39827664690295   -0.00858435777332   -2.34288532398671
H          -1.14875317727553    0.92846989126555   -1.80761904570886
O           1.54827161228761    0.10278001448426   -1.06902722021071
H           1.37328581649043   -0.66119808289266   -0.49339413437206
H           1.39532970357190    0.87518419682914   -0.49396911262766
N          -1.51936751086707    1.53771528414033   -0.95545717300873
H          -0.80276262623255    2.20662030469968   -0.66588637367616
H          -1.60406502541047    0.84161699303977   -0.15832154915402
H          -2.40113863967165    1.99996184367126   -1.14810604928984
