    23
        -45.37304278  Gyration_radius:  2.28347294139 Dipole_moment: 3.005
 S          -1.36557551156312   -0.03248133952360    1.09173942662978
O          -1.17255439340686   -1.10896983981145    0.12207952549206
O          -1.37094535819795    1.27984969897625    0.47115464317672
O          -0.44031839282067   -0.13156961157465    2.19987688596146
O          -2.81426257323296   -0.26328544224242    1.68462521684560
H          -2.83596713139599    0.37806570696175    2.38669009805569
H           1.28073155085558   -0.20286875530235    2.12712153218187
O           2.13749247458143   -0.24992108218975    1.64960782066721
H           2.07612054067598    0.51792378166169    1.03089258350715
H           1.78883892683444   -1.31911160121156    0.71267288911845
O          -1.40531488364775    1.85200569916899   -2.18695246030989
H          -1.14371454255218    2.77340190901001   -2.22867695733552
H          -1.53070418365603    1.65548412108514   -1.23921990661899
O           1.24814597058918    1.40171125492080   -0.18912754431315
H           1.09905486565448    0.87430196251723   -0.99555052573380
H           0.35494633908263    1.55501940875888    0.16364689892440
O           0.22898504879037   -0.32242917410754   -2.07536042714484
H          -0.43663378971618   -0.64023739222325   -1.43957870798350
H          -0.23421726235360    0.40274288861794   -2.52691891695933
N           1.28450429663808   -1.98450707734997   -0.02084628785394
H           0.25055266915078   -1.79710596867976    0.12971593106752
H           1.51266695367799   -2.96447415788176    0.10541272582320
H           1.48816838600846   -1.67354498943261   -0.97300442313547
