    23
        -45.35354865  Gyration_radius:  2.43934240394 Dipole_moment: 1.056
 S           0.27716587674514    0.49201488663584    2.10222318170622
O          -0.20243523098990    1.74381744980698    2.59506087628416
O          -0.68028714533070   -0.39387479189447    1.50859188220612
O           0.91857071761805   -0.28039684055763    3.32927051586541
O           1.44667679623093    0.73608718724125    1.17323314816897
H           1.73683373502158   -0.12526539227823    0.58693645681043
H           1.22426641051246    0.38851908636430    3.93815115798868
O           0.56660885940546   -1.00622795178217   -2.16857202739429
H           0.43978273857145   -0.03669267904376   -2.22402870738999
H          -0.27789955184944   -1.36315514974079   -1.79813751653658
O           2.16617575521861   -1.16952515325610   -0.21390218062211
H           1.51661319541734   -1.16340909100364   -1.02095253070704
H           3.02120618518443   -0.91373091650036   -0.56909326769018
O          -1.46545526217594    1.82899352853523    0.13548348139911
H          -1.47305312205802    0.91939886602382    0.46260866052917
H          -1.14660276893927    2.34396238488472    0.88556006651465
O           0.08953688743564    1.65649395945661   -2.07459529036188
H          -0.40538351303005    2.08251598027579   -2.77608925971430
H          -0.43896629743970    1.77381171385479   -1.25818749510495
N          -1.64462074019488   -1.82417915543678   -0.85198395676821
H          -2.53739605292565   -1.39127543618783   -1.05398964617942
H          -1.33324944839328   -1.47750658863862    0.05226862823632
H          -1.79808800403254   -2.82037589676668   -0.75985621721674
