    23
        -45.37368241  Gyration_radius:  2.31186943715 Dipole_moment: 2.873
 S           0.22465492102570    0.34856100456052    1.77818781868483
O          -0.97595700961724   -0.32398314343587    1.34222743247532
O           0.29244545780663    1.75359272087062    1.41943910907942
O           1.41953245836870   -0.37813894202789    1.34279637497491
O           0.22699277753074    0.30857231464006    3.36342944122694
H           0.85830607778599    0.99007994141487    3.56802487600844
H           2.19680431121687    0.20270818334202   -0.42569315413250
O           0.22274746432624    2.22099834158991   -1.13671356065288
H           0.30386619159414    3.16406457676084   -1.28745052358152
H           0.24731857602492    2.09607955424885   -0.15255638980598
O          -1.97427416247742   -1.88725887460536   -0.84757837672372
H          -2.20166923809310   -1.91488802534100    0.08790408574919
H          -2.14263992923878   -0.94491781373991   -1.09209268859477
O           2.02237955688485    0.20126763996496   -1.37857362176114
H           1.43215344259869    0.96320711887849   -1.52262735752769
H           1.11209580397965   -1.23228760690961   -1.26559495717975
O          -2.12450311954817    0.75050557748636   -0.85357098114646
H          -1.84174233271532    0.56721876370092    0.06057617456570
H          -1.42381664636858    1.30783761436487   -1.22206076198749
N           0.64298032586244   -1.91743261201381   -0.62173897861153
H          -0.42005331738981   -1.93665138797720   -0.76679915408213
H           0.85615304062222   -1.49531872581864    0.32338240862352
H           1.04622532976715   -2.84381621990862   -0.71291722556113
