    23
        -45.36722569  Gyration_radius:  2.33510894144 Dipole_moment: 2.802
 S          -0.44380107652517   -1.51100486991485    1.54397254091886
O          -0.91227464650439   -0.15385204011777    1.27103299444798
O           0.98327286837956   -1.54828275931801    1.74796339980756
O          -0.91541015368258   -2.45050420244118    0.52817936028453
O          -1.15054209860608   -1.98199602725020    2.87847030456332
H          -1.64941439855207   -2.73504317194601    2.57840635985968
H          -0.61867381453786   -1.97717944940205   -0.87697901303240
O          -0.32174111396039   -1.41410769863927   -1.68191824734140
H           0.62281515851300   -1.10722718617827   -1.39904093729765
H          -0.96345317005287   -0.52065416323959   -1.58865164459213
O           1.83720836253649   -0.66788085227667   -0.58562950410335
H           1.72783582890527   -1.18290228188729    0.24244746557477
H           1.75297627262717    0.25391391101540   -0.27457973709698
O           1.19471944298955    1.42398555279356    1.01714938939657
H           1.76774339120146    1.24828369551469    1.76630265375952
H           0.37648791265565    0.90691759103522    1.19354702400036
O          -1.66843620231792    0.58555466942695   -1.16273427696985
H          -1.60745740862173    0.41732722308334   -0.19786355150626
H          -1.08229034734134    1.38169902571104   -1.33185623123247
N           0.07116966867180    2.57342698278406   -1.44147405287154
H          -0.31193010518015    3.50946287346443   -1.46506480087659
H           0.73887011855972    2.48835642418357   -2.19725027882531
H           0.57232553063494    2.46170675355591   -0.56442921694873
