    23
        -45.36311419  Gyration_radius:  2.3832001245 Dipole_moment: 3.318
 S           0.46924981218145    0.84803911256092    0.84943177127114
O          -0.52577046926390    0.86618107966088   -0.20050506596546
O           1.70274444963158    1.47941388605042    0.49981555725558
O           0.70693600682170   -0.61418317177679    1.28273345808750
O          -0.10063380867615    1.47954023186806    2.11258318896227
H          -0.96780676687100    0.98583495144576    2.34501345228475
H           1.04245292817582   -1.16360851131385    0.48918403523961
O           2.53877273383065    0.27391563096874   -1.78325092033656
H           2.49155118295908    0.81568156631092   -0.97649555423181
H           1.83617520653281    0.63540028448800   -2.36046718829460
O           0.29190342633279    1.45628459666748   -2.70947716090192
H          -0.11241263253385    1.23417450900437   -1.85005135706488
H           0.36316919789562    2.41230731642453   -2.73073102404496
O          -2.28634902240728    0.25822764810656    2.51358199493287
H          -2.27492491602016   -0.45587662469437    1.80533350594630
H          -2.98600979959089    0.86925759374904    2.27096146385690
O           1.58673530887380   -1.87724941207632   -0.72634667207826
H           1.97153480560914   -1.10599699730092   -1.24985261161765
H           2.33388525111774   -2.42974244085263   -0.48526402517168
N          -2.11652863152738   -1.39143667472110    0.46022223509818
H          -1.60998800590811   -0.68344292214070   -0.06863203279220
H          -2.87795487443217   -1.73440686344236   -0.11169279577779
H          -1.47673139272154   -2.15831477896133    0.62390575535138
