    23
        -45.36494165  Gyration_radius:  2.33607824732 Dipole_moment: 3.239
 S           1.08313877514893    1.40035243216209    0.36665020937236
O           1.45009994952448    2.55624857710626   -0.36395894567660
O           1.50923339146219    0.12970989979549   -0.18850579407022
O          -0.44766928040018    1.36524004243450    0.54204965400481
O           1.61668985186145    1.50426193837823    1.81292485558737
H           1.23352973632823    0.74454269952521    2.33615960633186
H          -0.85143615191928    0.41482195233252    0.59198116365088
O          -2.21652213354495   -0.54999226232601   -1.88852251084048
H          -2.98770173888944    0.01516998275725   -1.95610784640742
H          -1.44054566842822    0.00592162815702   -2.16703682230342
O          -1.46137627906919   -0.94638202689134    0.59573580883981
H          -1.84362502703050   -0.91715660065657   -0.32038028719545
H          -0.75176205708889   -1.60742591229842    0.56575718282177
O           0.98800887446444   -2.21068560668884    0.81956230639796
H           1.61742705013881   -2.89299693920781    0.58235680804845
H           1.28357022377089   -1.38207918242079    0.37173977674891
O           0.43464629753904   -0.54241452234718    2.89608339500189
H           0.69538779242527   -1.29931756928423    2.33880455693476
H          -0.51593497496578   -0.44552025920044    2.78210666893648
N          -0.09585841244934    1.01857620645838   -2.43195752152007
H           0.21824758157200    1.20880128206145   -3.37661662312621
H           0.65153915119808    0.52155591342508   -1.95737136958263
H          -0.16908696165053    1.90876834673747   -1.95145427195951
