    23
        -45.36494154  Gyration_radius:  2.33596356916 Dipole_moment: 3.243
 S          -0.92657653363904   -1.43158118757869    0.60199503126250
O          -0.88564612053369   -2.81169301385345    0.28869349472698
O          -1.34736561231397   -0.54479749627001   -0.46612400276490
O           0.45936011345309   -0.97337011228539    1.09645932318412
O          -1.84759843854639   -1.19858216583654    1.82036968497225
H          -1.75436527001090   -0.24321398757032    2.09660167388110
H           0.68572801563021    0.01218706698601    0.88210816839257
O          -1.35727826737680    1.30826783972393    2.30542364896682
H          -0.41257473941409    1.41438783648423    2.45474925841820
H          -1.54813696460677    1.76322992696759    1.46411581443065
O           2.57553107953575    0.44478696642053   -1.39473695601571
H           2.00824171430997   -0.34085928837927   -1.61760748017501
H           3.40447891863003    0.09162502727723   -1.06802984292908
O          -1.49930157508923    2.04722800498685   -0.30957045954565
H          -1.52331290638523    1.07388465183173   -0.47204102205026
H          -2.11624864846008    2.44568272837959   -0.92489017788867
O           1.06022373976715    1.41043273193728    0.52092622934706
H           0.30360147791160    1.83481426056282    0.08621669700191
H           1.69980114319633    1.18693016433058   -0.20522847957655
N           0.96764481857274   -1.67930009060447   -1.78957616407166
H           1.02345604103709   -2.32752956959336   -1.01150234879559
H           0.98236266198178   -2.22714768145665   -2.64215577403922
H           0.04797536239235   -1.25538261238273   -1.71619633672928
