    23
        -45.35527503  Gyration_radius:  2.38539306807 Dipole_moment: 4.368
 S           0.27676666421040    0.35443104112666   -1.88399859631973
O           0.02661627359690   -0.35761059253529   -3.09469471198547
O           1.33147733224493   -0.18258918139667   -1.05504312434890
O          -1.03582150366444    0.35394343498287   -1.01152998339984
O           0.49775353818100    1.83023826225542   -2.12922946454178
H           1.07411609231415    2.20821428393237   -1.33573308894696
H          -1.23867650160670   -0.58391799386863   -0.85084871273780
O           0.61902735979525   -0.47964894556852    1.57317404678476
H          -0.26382761711639   -0.90922344546693    1.54791179506576
H           0.94211384855107   -0.46554384031723    0.65775601289768
O           1.92952551939630    2.40587476080551   -0.17139564853325
H           1.32529519997847    2.43720664079848    0.62162141642132
H           2.32660462978121    1.52604329123807   -0.16247266246278
O          -0.66498712729663   -2.29515196417389   -1.33600417774797
H          -0.52694070994545   -1.96829179097709   -2.23810740442613
H           0.21571779272306   -2.43830906607020   -0.97678941327644
O           0.40697460296132    2.11751237826479    1.94559662588155
H           0.80307187606606    2.34379396348404    2.78868409932064
H           0.41555457372664    1.12622536720781    1.88969608610283
N          -1.87280797770272   -1.64568727235756    1.34789497939763
H          -2.56532695278440   -0.92955023047627    1.16769035346734
H          -2.17422883091591   -2.17661553931136    2.15509917227575
H          -1.84799806250628   -2.27134356155597    0.55072239110149
