    23
        -45.37078327  Gyration_radius:  2.26771594722 Dipole_moment: 2.644
 S           0.87645601261145    1.47048783808309    0.69642185176281
O           2.12840699218530    1.34957160246551   -0.01804457118499
O           0.58112670837640    0.33443317032384    1.55121535521042
O          -0.23952980849041    1.77410837455005   -0.19808881609517
O           1.02605294108448    2.71549437113622    1.66019585873606
H           1.53343499340161    3.31476692094878    1.12263454521004
H          -0.45759241344870    0.89130922868055   -1.39350410394468
O           1.88281529606270   -0.61461140893040   -1.74114279047661
H           2.15586164184492    0.15055010114615   -1.18343324872754
H           1.73199928735031   -1.33943836409621   -1.11094974090196
O          -1.57051889120646   -1.64701332963441   -0.74830635207560
H          -1.96922894315655   -1.07558599192367   -0.02376719794575
H          -0.76760590347048   -2.03063103563578   -0.35252307977462
O          -0.48988726462415    0.14250928480589   -2.09626265640395
H          -1.03436478580309   -0.65605818360846   -1.61223097400118
H           0.49899677716479   -0.19099701754352   -2.12832920746979
O           0.89077929603165   -1.99568301703989    0.41353746339359
H           1.25599430058657   -2.61557087628572    1.04646103636609
H           0.80392066526591   -1.13356718921242    0.89151777874109
N          -2.22933671407067    0.07311348639315    1.13308279964278
H          -1.27651862456823    0.21258226789405    1.46931711396945
H          -2.83097093372284   -0.07161758272329    1.93396653849338
H          -2.50029062940835    0.94184736020028    0.68823238747584
