    23
        -45.36607922  Gyration_radius:  2.39025982272 Dipole_moment: 2.158
 S          -0.84704240905883   -0.40149100101763    0.38373470382255
O          -0.58308784702993    0.87131134341470    1.01590368197349
O          -0.53949019745238   -1.54119188689753    1.19908150360200
O          -0.07356617801826   -0.47660027183680   -0.93925464904975
O          -2.30458122756507   -0.47587722872488   -0.05325991974367
H          -2.54593734219696    0.36511580889790   -0.59073335364812
H           0.95266184681862   -0.67324324438580   -0.76083246817290
O           2.29061781037905   -0.97367233050597   -0.33938756269334
H           2.20406052740208   -1.92414811230139   -0.10667319292783
H           2.33544779830908   -0.50778766467500    0.52864942572137
O          -2.81202309845377    1.68714071891600   -1.27062804160879
H          -3.23463526894437    2.25332864970224   -0.62035808659662
H          -1.88734122850084    2.05729427162979   -1.41035123196096
O           1.37745023744497   -3.31136124767834    0.56984588745464
H           0.63068448043378   -2.77981367698653    0.90789684094503
H           0.99260598205049   -4.00688317956788    0.03453409717742
O           1.76589283631676    0.08028403751248    2.04521142995324
H           0.93179546372904    0.52359223285212    1.80871309997411
H           1.51211175318817   -0.67771156160101    2.57822303082214
N          -0.30340831365620    2.48433448612594   -1.31403456551534
H           0.08336806566584    3.41895558966278   -1.34797225161605
H           0.22906818268027    1.89659637882380   -1.94319695279339
H          -0.17465186356924    2.11182789868258   -0.37511145514609
