    23
        -45.36466374  Gyration_radius:  2.30011117799 Dipole_moment: 7.175
 S          -0.21704934959316    0.88897760115749   -0.12937322804370
O           0.23758348964310    1.04389591117106    1.25389787781725
O          -1.54304922318854    1.39274616892333   -0.36287768553248
O          -0.21442264705357   -0.67615174239963   -0.37441639266210
O           0.78324204265961    1.38901354146191   -1.07106684451520
H           1.64283680349807    0.31700724897692   -1.41299378554608
H          -0.88192439658462   -1.09073703915340    0.24292678247760
O          -1.34383160025497    0.24886160298320   -2.89641139241389
H          -2.24066800831732   -0.08410217285244   -2.97244331406441
H          -1.33477595858278    0.78838448355754   -2.09504340889359
O          -1.84313092469510   -1.59520730711259    1.42885733884865
H          -2.15411159720916   -0.72372799069670    1.78898665853660
H          -1.32228603593021   -1.99715708486002    2.12748798935420
O           2.47372849267109   -0.31381232380919    1.22437855009873
H           1.60864074804712    0.16585709875033    1.29983828324996
H           3.12457240398245    0.28400486806997    1.59798297475072
O          -2.25588842044940    0.88536410084398    2.22287669398865
H          -1.29957996608086    1.06380898894825    2.16773339972136
H          -2.59333434888298    1.27385719182172    1.40521667311242
N           2.24438966940022   -0.62038911091155   -1.40183668098429
H           1.58173574042262   -1.36074975691723   -1.62320458523740
H           2.51268778664307   -0.67404510608958   -0.38303021646457
H           3.03463529986342   -0.60569918190140   -2.03748568762247
