    23
        -45.36223735  Gyration_radius:  2.37840942324 Dipole_moment: 3.785
 S           0.50566111939086   -1.57238369032455    0.59737046677534
O           1.49652147328457   -2.51383098481099    0.22371176598567
O          -0.44483372792199   -1.20506291325115   -0.43951784932777
O           1.17195693111517   -0.30412257873107    1.13484107240837
O          -0.29817135006559   -2.13604292761540    1.79552667414828
H          -1.03556366456536   -1.51294131491693    2.03530555822114
H           0.64313771599804    0.59095237621944    0.98319755466227
O          -2.31722231366528   -0.54169150684617    2.27290650833121
H          -3.11021864084237   -1.06136013394058    2.42109358473727
H          -2.46221394649326   -0.02386525429581    1.46094882777731
O           1.37476541239217    2.24368049852008   -1.54286613986770
H           1.61580106132551    1.29506589162163   -1.71538320328990
H           2.19679678593546    2.69895781588176   -1.35360205872609
O          -0.03894703433098    1.82977305798997    0.64798653627878
H           0.44429081727292    2.09984822516154   -0.17527005530375
H          -0.93818633647860    1.58711726973431    0.36884948458336
O          -2.32375203377798    0.56147548641228   -0.22084209928438
H          -2.78708174434298    0.71544609711093   -1.04566402733951
H          -1.65092770354226   -0.14262049873277   -0.40075816293673
N           1.98328339460761   -0.36580548386525   -1.78748773060861
H           1.05960317419861   -0.77365614362931   -1.68189765829094
H           2.50496319320529   -0.67834415157843   -0.97598880275322
H           2.41033741730631   -0.79058915611400   -2.60246025618798
