    23
        -45.37628101  Gyration_radius:  2.35487702817 Dipole_moment: 3.318
 S          -0.83772576298256    1.03278449689314   -1.60416501092223
O           0.39500832928900    0.91413797928341   -2.34503701399018
O          -0.62439658161456    1.42791359036703   -0.20465413269018
O          -1.70134980287460   -0.12378262641640   -1.69713038704769
O          -1.63063921021026    2.25883032655210   -2.23377708261229
H          -1.65508518248290    2.02366960601440   -3.15549818036223
H          -1.30761005646140   -1.69532318767392   -1.07912537803486
O           1.81862099870354    1.24584555977694    0.73892160084895
H           0.92081402776576    1.40101501327428    0.35721222486795
H           2.35146917559620    1.99893514789672    0.48093249584200
O          -0.85359262788956   -2.29010468577606   -0.44600580426140
H          -1.12047201919742   -1.38880425785436    0.75952969546066
H           0.09476780861923   -2.10626660989229   -0.61190045610345
O           1.47182103834163   -1.02930483266154   -0.87323284766517
H           1.85465032407573   -0.42220254746535   -0.22563911061028
H           1.15233267055611   -0.43857981643575   -1.58170641122878
O           1.17649407985392   -0.46970734092844    2.72893675241030
H           1.51423434914179    0.25016068413601    2.16194310884180
H           1.71130734366623   -1.24037696969261    2.52606184103678
N          -1.19115996135151   -0.54915291563765    1.44199700030790
H          -2.07060295979696   -0.54132000002187    1.94544417509098
H          -1.09949753157357    0.30346754652504    0.82648555937614
H          -0.36938842912134   -0.56183416021799    2.09040734140502
