    23
        -45.36480694  Gyration_radius:  2.37437649019 Dipole_moment: 2.636
 S          -1.88563896276296   -0.45267640266666   -0.78178492317948
O          -2.57932880290994    0.53266483399906   -1.56913156723153
O          -1.27839925333001    0.05173985751466    0.43982089497136
O          -0.90982167308529   -1.21472607449982   -1.56863526156098
O          -2.97601279844870   -1.49962645157743   -0.30005277632551
H          -3.59342727433506   -1.52299813681449   -1.02440530072424
H           0.44807304058104   -1.32564427339803   -1.02469192369918
O           0.93849179545493    1.30736205893237   -0.30995687589780
H           0.08658801410548    1.06567462353599    0.11203243651399
H           0.66976616539413    1.56561564791192   -1.21993486552922
O           0.47997484776133   -1.40600419310470    1.79861054236634
H          -0.36097749283220   -0.98922382220035    1.51754070035955
H           0.99134224050043   -0.67262357060500    2.23904432693014
O          -0.30429918357062    1.38606369336807   -2.65168320046577
H          -0.09228742731372    0.60827052405818   -3.17342387035156
H          -1.21535861477108    1.23410498755396   -2.33091945951692
O           1.34576571720195   -1.18987750928295   -0.51331265027936
H           1.40437398568269   -0.16020558369091   -0.48006846207570
H           1.07327656030185   -1.43217823132655    0.50746978167015
N           1.82578703574448    0.78234082222963    2.55886245219485
H           1.34769763247448    1.33506248324910    3.25907310801272
H           1.78756571815397    1.29416103873442    1.68289297631989
H           2.79684871001130    0.70272369809544    2.83265390751004
