    23
        -45.35401055  Gyration_radius:  2.4945616444 Dipole_moment: 3.460
 S           1.08421744088440    0.36700628617395    1.99055283601536
O           1.29571626048009    1.31786275953073    0.94988023264934
O           1.31774325317313   -1.00939863960523    1.64108202423864
O          -0.27809658787139    0.52071062040999    2.64745418952817
O           2.04423232548077    0.72663934649364    3.18132423963226
H           1.94413414915975    0.01411459666039    3.80793052612863
H          -1.10100945640174    0.21834640341828    2.01939878656986
O          -2.09927225567635   -0.18312033793184    1.12771909894475
H          -2.33610665256742    0.63465896001214    0.61465370941258
H          -1.64446460930857   -0.77401265036211    0.50014974109205
O          -0.07204779003980    1.17844355917027   -1.39804448553781
H          -0.21870610739669    0.23330824436280   -1.19845794460742
H           0.52783451388154    1.47350290183674   -0.69501904841540
O          -0.27856798565884   -1.40012903609720   -0.47374297731819
H           0.23680662707730   -1.69655782024670   -1.25537322895911
H           0.35166545950858   -1.40708521541304    0.27032071161551
O          -2.44145247328009    1.89728730613963   -0.45446932676421
H          -3.08783163006885    1.86374153906624   -1.16108885888413
H          -1.55378750753781    1.79143836595569   -0.87822546406167
N           1.39398411278625   -1.52159139549314   -2.62511305046366
H           1.29446776592248   -0.53496114832587   -2.83777146322703
H           1.28399594649670   -2.04081032129206   -3.48675796401949
H           2.33654518095707   -1.66939434448445   -2.28640227356578
