    23
        -45.38305556  Gyration_radius:  2.3208898365 Dipole_moment: 3.587
 S          -0.05112521980830   -0.12734362927419    1.38998664280351
O          -1.26773899495995    0.35022608208885    0.75341991554971
O           1.05151567898195    0.82428177409827    1.21332600172097
O           0.33200014097728   -1.44888000417561    0.91225343163106
O          -0.35131079635818   -0.22561228276109    2.91879766728630
H           0.49503459377983   -0.55721849842897    3.27930539431693
H           0.57255258239345   -1.52068241102372   -0.77784483148150
O          -2.14437434941814   -0.87374260014392   -1.43564716248994
H          -2.69690936226506   -1.62993177860153   -1.23312022608545
H          -1.88157583752075   -0.49139161261207   -0.56873943351723
O          -1.56054957675319    2.01861806558681   -1.34217430622329
H          -1.59344572396800    1.65531329375392   -0.43645997448383
H          -2.06844850598706    1.39245837017109   -1.86967632865734
O           2.15296131727284   -1.06425923425590    2.87859474092685
H           1.79296104985225   -1.63468536066901    2.18341503706808
H           2.33818524910697   -0.22617416893965    2.43636095154090
O           0.52331540910004   -1.29363896207854   -1.73201175967938
H          -0.43610874086807   -1.27668289418254   -1.91159937849391
H           0.90600951432018    0.22610008341160   -1.66916647872033
N           0.98318977310957    1.24953784786460   -1.35735742187155
H           0.04402559484739    1.70538907929225   -1.50792428416274
H           1.73618199946254    1.74774458930931   -1.81844109454722
H           1.12365416470124    1.20057424157148   -0.30529710243312
