    23
        -45.35265586  Gyration_radius:  2.49154409191 Dipole_moment: 3.336
 S           0.73886943634187   -0.30300943951102    1.12556315970149
O          -0.59631924684897   -0.39642581944210    1.67282959959384
O           1.38814576702028    0.94439590981578    1.37118051083901
O           0.63551998785047   -0.59104538467908   -0.39870303588170
O           1.60982311067225   -1.45038640363938    1.61249161394233
H           1.31970479487475   -2.31055098471289    1.12478584448083
H          -0.10966023881419    0.00032622050962   -0.72910675427126
O          -1.35115310010935    0.99557148146710   -0.62853727742512
H          -0.91967520267988    1.86032013466573   -0.45695098072311
H          -1.67639342705377    0.68223352760235    0.22374525357481
O           0.70884476151443   -3.39717079200596    0.28025849613334
H           0.78129109965824   -3.05974448627601   -0.61761585159723
H          -0.24620024111134   -3.32602605068914    0.52886528789544
O           0.21756472904686    3.01958286140770    0.17655823807970
H           0.06116026580000    3.71821888944044    0.81471175262225
H           0.78424687018320    2.35965994978827    0.62364860709572
O          -1.70561189758060   -2.73924657229583    1.11507824734108
H          -1.41076013770573   -1.83620278734529    1.35713622847212
H          -2.06939910953435   -3.12969122889580    1.91196059967395
N           0.67277896878264    2.09074538154387   -2.88482462820156
H           0.90264938886286    2.46912338877030   -1.97317972073093
H          -0.16027428947209    1.52549764543458   -2.77189328823126
H           0.42484770029508    2.87382453902678   -3.47800189240049
