    23
        -45.37250123  Gyration_radius:  2.28373190361 Dipole_moment: 3.843
 S           0.32044549986102   -1.77548305800701    0.22160331218631
O           1.43203693886321   -1.02194114537902   -0.33302037270119
O          -0.79974442707832   -1.92765100444874   -0.68799662215102
O          -0.08574891663273   -1.25980777320956    1.52018908319230
O           0.88786762448100   -3.23569612131228    0.47800173424021
H           0.11514280313071   -3.73074766460964    0.73351155374634
H          -0.39325086883297    0.28832071582740    1.42141268324547
O           0.07622349651609   -0.14775799490636   -2.45370271589432
H           0.89482105344288   -0.31538464322236   -1.95996779937009
H          -0.49939743432158   -0.85863812467165   -2.12311686426162
O          -0.77676693385492    2.02408797482516   -1.25259000557625
H          -0.24019462889800    2.74534767603825   -1.58474020047889
H          -0.50092505352672    1.22018232112515   -1.77223728710843
O           2.38129327058652    0.99410965731839    1.08231115571970
H           2.90569556092244    0.60811699741065    1.78574812489712
H           2.12784121744951    0.24017815522119    0.49897173442187
O          -2.45911118479721    0.06801766092766    0.16139443106755
H          -1.99172745068784   -0.74248858229260   -0.09635771087867
H          -2.57940685732551    0.57621745303252   -0.64436086787319
N          -0.25026534292714    1.33481432258015    1.30001808250837
H          -0.58461676223924    1.60541432856654    0.33833711432376
H           0.78572050879341    1.46846576375492    1.35589645729869
H          -0.76593211294696    1.84232307542766    2.01069496942293
