    23
        -45.35823156  Gyration_radius:  2.40419560353 Dipole_moment: 4.225
 S           0.03644141980409    0.00649290258351   -1.25196694958718
O           1.18709572699326   -0.85798903307812   -1.22709004686911
O           0.00975851143451    0.94465215651663   -2.33513695447587
O          -0.02507585694862    0.77328301343142    0.09877685351809
O          -1.22876779929752   -0.84018743105221   -1.22934699348597
H          -1.95159012210332   -0.48016641566962   -0.56416628066650
H           0.93887023088291    1.03285154432824    0.28626732425483
O           2.47300517248714    1.20569335297832    0.16880760993214
H           2.53534020640237    1.81325677602944   -0.60402930930159
H           2.67386694409607    0.32935766397831   -0.18165506221696
O           2.12987030588025    2.54593715304397   -2.10186196331458
H           1.38135048068020    1.96638702384738   -2.35170578826247
H           1.80522265652126    3.44569083775541   -2.17243550023701
O           0.32968005255406   -2.46432414557251    0.74619763503708
H           0.74582461726939   -1.92182236651910    0.05212320226663
H          -0.10772533113906   -3.17985647323565    0.28127946138901
O          -2.93190982758167   -0.17620176136990    0.47198040485192
H          -2.33517864141615   -0.31870657660805    1.28694665261915
H          -3.57510706037971   -0.88920515640244    0.47167305679756
N          -1.25528755907911   -0.68822662162768    2.40150954236372
H          -0.66525743396793   -1.38142311114480    1.93763378774310
H          -1.46748798786259   -1.02183630580166    3.33333435994333
H          -0.70293870515006    0.15634297321357    2.48286492766268
