    23
        -45.35549183  Gyration_radius:  2.34238853029 Dipole_moment: 3.528
 S          -1.11592614110071    1.24513231388726   -1.12891820436051
O          -0.03504507324847    1.75696128598414   -0.33202287255589
O          -2.42318487685286    1.30465417549004   -0.58634110391404
O          -0.80383314385952   -0.18058815559656   -1.57709467250526
O          -1.08560005228403    2.06529618602880   -2.48054411026099
H          -0.19231609428848    2.39014994396701   -2.57685125135363
H           0.24342690204938   -0.25272106208811   -1.71779710974710
O           1.65466606104456   -0.35024103435261   -1.84226890158687
H           1.87842913778328   -1.08759394407000   -2.41590447260925
H           1.87953447408452   -0.66987987832849   -0.88539986335807
O          -0.46960064140633   -2.34929409906080    0.34928955302836
H          -0.91412297510398   -1.73680883122051    0.98715092954643
H          -0.80984215492780   -2.08408618659977   -0.50933660529643
O           1.95539280205871   -1.25539052259500    0.50349160603757
H           1.13585041683464   -1.80639566338274    0.52465727151262
H           1.78354587881939   -0.52487261978577    1.12740378912753
O           1.23276352700302    0.98770954085080    1.89408905487274
H           0.77152920495172    1.32576672137070    1.10204882051450
H           1.91867209894818    1.62499430944081    2.10006183665386
N          -1.57173342982757   -0.34213651374082    1.76369983705697
H          -1.97685661207730    0.24618761000189    1.04210645608935
H          -0.78905714413510    0.15882020292706    2.16899406620012
H          -2.26669215446806   -0.46566377913076    2.48948594690958
