    23
        -45.38002467  Gyration_radius:  2.29660007478 Dipole_moment: 2.976
 S          -1.51662951232352   -0.13733016191402   -1.18772315383581
O          -1.41704386049699    0.90311943626294   -0.17292345760377
O          -1.96975497429627   -1.40289612506254   -0.64010535103629
O          -0.30247007798736   -0.27127895126982   -1.96724506915402
O          -2.63449515321791    0.36163472831121   -2.19508366865083
H          -2.50149402730489   -0.24354377891674   -2.91641031712902
H           1.06137785770722   -0.90603865584560   -1.26158389558351
O          -0.30622787239617    0.13697560484811    2.13456871416790
H          -0.28644858219950   -0.82516887761568    1.99154841162293
H          -0.88073652626857    0.47485296067321    1.41613918494134
O          -0.21331650592332   -2.35131888720375    0.98883199312290
H          -0.91242454681441   -2.02769337082329    0.35697644675594
H          -0.47751640348670   -3.23820441182452    1.23846750078139
O           0.46573233838706    2.67323948260510   -0.57371719377916
H           0.08670324629110    3.48771855493711   -0.23828401350162
H          -0.27146648152599    2.01606304660775   -0.57238027286994
O           1.72756475566141   -1.24001300944497   -0.61583970799938
H           1.95915171732272    0.04133143975977    0.22552471760797
H           1.21856155509425   -1.83029299695568   -0.03412514571431
N           1.86105359727631    0.90120514671844    0.86497394857634
H           2.72963047580137    1.13458933195565    1.33107299461870
H           1.07929761436471    0.64938791216273    1.54529705377431
H           1.50095134632285    1.69366158199678    0.28202028087517
