    23
        -45.38002507  Gyration_radius:  2.29649790195 Dipole_moment: 2.977
 S           1.37300930544863    1.32933818638675    0.27950473290915
O           0.77194282693630    1.85582675095981    1.49130971048234
O           0.46517245555545    1.38067139088700   -0.85870675599961
O           1.95008860812345    0.01399596573181    0.47068844925562
O           2.57721090930219    2.28891319202343   -0.09781394794606
H           3.20475643900901    2.05479774995306    0.57723130709269
H           0.99629890731570   -1.23463164118163    1.01159207384136
O           0.76907169393067   -0.53913929740012   -2.60791023555767
H           0.80661851434303    0.18998603829684   -1.94273497513421
H           0.57525986415996   -0.11497319080788   -3.44574970865374
O          -2.04296245497971    0.61026944306964   -0.34642593045176
H          -2.00231914301439    0.56937578416453    0.62483236691703
H          -1.21945941573946    1.07613167994925   -0.60163144257689
O           0.23120872029653   -1.80091522264452    1.26901385889977
H          -0.32823085161923   -1.21327221955193    1.80526552875146
H          -0.49932121734054   -1.90764767735403   -0.09472794928003
O          -1.18101943152613    0.35249849418285    2.24219504443008
H          -0.42537114585547    0.95312037628852    1.99510972644926
H          -1.47935673936685    0.64916460605234    3.10337802978144
N          -1.02663543921997   -1.71677886057268   -1.01290859243065
H          -1.60993887267425   -0.84536439173840   -0.81836378252071
H          -1.58594794509735   -2.50859704300346   -1.30680624424105
H          -0.32007558800453   -1.44277013372331   -1.73634126403027
