    23
        -45.36324345  Gyration_radius:  2.3472175415 Dipole_moment: 3.222
 S           0.04435755259819    1.61016983806084   -0.31908201393740
O          -0.13035762546686    2.34553164069661   -1.53323368621477
O           1.26670977429324    0.84544857579825   -0.25448963870719
O          -1.15397137799170    0.63353894885567   -0.12033513301723
O          -0.08574951571178    2.52564133244372    0.88430156435782
H          -0.05921777745369    1.95724583257626    1.75411251866198
H          -1.13379872092517   -0.04127833009107   -0.85896017172377
O           1.08186519105888    0.41552719497499   -2.95997585982944
H           1.72297945704028    0.29253482407400   -2.24973504962429
H           0.67811655752111    1.27827044926099   -2.75985974810223
O          -0.96319634908332   -0.99173708804407   -2.12802473487601
H          -1.67110159864429   -0.84252389864790   -2.75916142238776
H          -0.14700224183197   -0.58725328781694   -2.53272861370718
O           0.07660572607366    1.09753847791934    2.94703488630516
H           0.70692293477361    1.49977141007918    3.54911115036283
H           0.52030114864677    0.25795714934396    2.59206852881053
O           1.26012783071619   -0.87689157111646    1.80939311538323
H           1.47231519758791   -0.34369112046257    1.02288171037369
H           0.57803378445487   -1.51783926919704    1.50134704440613
N          -0.78694179816304   -2.31933081202662    0.73326032103664
H          -1.05235226228238   -3.26525936088772    0.97638241837331
H          -0.67301116749494   -2.27152391949935   -0.27279756972909
H          -1.55163471971417   -1.70184702629030    0.97849037377915
