    23
        -45.37326470  Gyration_radius:  2.28410786507 Dipole_moment: 5.858
 S          -1.01695142703066    0.43293997273118    0.92303094904402
O          -0.45444537884119    1.34319493252459   -0.07171946100248
O          -0.57431834288919    0.71071733261139    2.26209116634896
O          -0.51032558175061   -1.01465361029862    0.51448666986895
O          -2.46885581141547    0.30709087311239    0.78356621111422
H          -2.59739963312002   -0.42320036388231   -0.41387493075108
H           0.40461217023990   -0.97619643470920    0.12619286333666
O           1.80787889415418   -0.92567133395951   -0.68782426915593
H           2.44104434743006   -1.47021759774786   -0.21676490117167
H           2.07405594968604    0.02748289512253   -0.49249719692464
O           2.22066603799270    1.50226342507086    0.08245135150932
H           1.27364128391678    1.72420468043361    0.00865091298153
H           2.34857994630063    1.26525666863471    1.02250361743279
O           2.02375257985367    0.45345550049622    2.55797508888800
H           1.04110235752819    0.50027391893986    2.50451737597224
H           2.25637736759063    0.87539714850653    3.38647955553214
O          -0.34516267526156    0.01884959156297   -2.30672077175145
H           0.46384471878757   -0.48402806455316   -2.14746462688078
H          -0.35628757156334    0.69373524186878   -1.58368632039065
N          -2.54903951947072   -1.01863718178506   -1.35975523646553
H          -2.44579094943768   -1.99639138710845   -1.10536316645256
H          -1.66008379566631   -0.67280339682969   -1.85740305922716
H          -3.37689497703428   -0.87306282073791   -1.92887184185837
