    23
        -45.37862756  Gyration_radius:  2.28693278995 Dipole_moment: 3.435
 S          -1.49652017840730    0.78750912136584    0.71457729011513
O          -2.12131583293673    0.97735190471613   -0.57334325992128
O          -0.26894693553695    1.53683449521609    0.90898800307567
O          -1.32248405591931   -0.62646219521430    1.05067498818414
O          -2.51458962511453    1.36231761644841    1.79023653199672
H          -3.36236071706483    1.10694214928659    1.44071183708904
H          -0.61429810311203   -1.63054844543152   -0.25338892291423
O           1.53968683679934    1.19122878942835   -1.12058561213212
H           0.95090004855717    0.91095555915845   -1.83855519345806
H           0.94491411637489    1.50734254735285   -0.42013597458061
O          -0.03510995525627   -1.96836429311127   -0.95752813678457
H          -0.19818913377422   -1.38873281877088   -1.71735850162926
H           1.57577818103735   -1.63755377932732   -0.47028864036947
O           2.31718999473851   -1.11769918082061   -0.07417827778315
H           1.72132034154711   -0.75838980506644    1.20672980189748
H           2.26537080342268   -0.24753452420605   -0.54065338178588
O          -0.61106839035766    0.21602728095602   -2.57515350538154
H          -1.21959571482907    0.52894168665374   -1.86451954064186
H          -1.04375999552462    0.41263104254343   -3.40733909043167
N           1.06725819474551   -0.39408050092348    2.03119551620503
H           0.11812863056541   -0.80125234289772    1.86074401884899
H           0.87844797336467    0.61001661055049    1.84946768095949
H           1.42924353666686   -0.57748092790354    2.95970235944412
