    23
        -45.37862734  Gyration_radius:  2.28684651801 Dipole_moment: 3.441
 S           0.17106483674640   -0.08720295767883    1.82551132515936
O           0.72946144502164    1.10897500913334    1.22260093285872
O           1.03338326229576   -1.24442725342893    1.77954919335881
O          -1.17281023255839   -0.36850393912410    1.31804642957898
O          -0.01642173483173    0.26590436993146    3.36309317436803
H          -0.07015451791711   -0.59055779354380    3.77499613894316
H          -1.21957620910608   -1.24624580453803   -0.24314428674980
O          -0.77006510624211    0.86868893482702   -2.29656468206759
H          -1.23372477099121    1.51976982714980   -1.07734367523375
H           0.20737426905860    0.90182272453845   -2.15137442334637
O          -1.06880287502964   -1.51260350322096   -1.16600620987384
H          -0.16732225034468   -1.86890820317696   -1.18149170187003
H          -1.00329187029899   -0.06944283165698   -2.09094680785250
O           1.61993078984241   -1.99785115595504   -0.66096586975325
H           2.23850128209916   -2.72948945581725   -0.64002926338924
H           1.44353672672776   -1.75573379215789    0.27898003998475
O           1.68595062434631    0.69735324173413   -1.31219962425254
H           1.51861252554360    0.94257084289673   -0.38687274832560
H           1.83928346829853   -0.26014634854508   -1.29124556358165
N          -1.43506309618424    1.83282300519349   -0.02781425503256
H          -2.09994483514586    2.59269943395277    0.05824047739341
H          -0.51657432101086    2.03216790829705    0.41202625449342
H          -1.71334741029921    0.96833775117548    0.49295516518249
