    23
        -45.37862777  Gyration_radius:  2.28690902305 Dipole_moment: 3.432
 S          -0.54982268078425    1.00342386948719    1.43574811730429
O          -0.13559123007157    1.77973019355063    0.28203369478343
O           0.53154929297040    0.55135917601369    2.27927310976163
O          -1.45576730604713   -0.08214508708879    1.05594047162709
O          -1.41783841133963    1.99595027914147    2.32187035173776
H          -1.39450940787063    1.59037014216646    3.18269025399166
H          -0.64816782183493   -1.56990383790823    0.46717036290698
O           0.00413895123600   -0.97666198086174   -2.38074258766621
H           0.79721456119528   -0.42960426976329   -2.15844143387828
H          -1.05787311305222   -0.06827421326004   -1.96725005573255
O           1.81696831580743    0.55253058369774   -1.19628049639962
H           1.23797346603112    1.14943744278085   -0.69331933287099
H           2.19563231528060   -0.04414331850308   -0.53189831806823
O          -0.07980264791074   -2.18856893905923   -0.02223234529300
H          -0.03589994928410   -1.63621966162239   -1.64580280222022
H           0.81298401733820   -2.03896843879658    0.32464801221971
O           2.21257850817970   -1.03424639335998    1.04327885653406
H           1.62097419429867   -0.43564882990270    1.55801503842497
H           2.94253819694279   -1.25663622179282    1.62296334956001
N          -1.73371375401851    0.62908280072505   -1.42191933558865
H          -1.15659626224993    1.43137590510096   -1.10840134525012
H          -1.94940337686929    0.17577762526685   -0.50237318690180
H          -2.55756585794939    0.90198317400017   -1.94497037898550
