    23
        -45.36257368  Gyration_radius:  2.47602506679 Dipole_moment: 7.312
 S           0.50743690318830    1.37595841212659    0.07097430467778
O           1.56547015817463    0.85625703988891   -0.73117772314265
O           0.27534222005353    0.66389067356285    1.31499551355143
O          -0.82066996813785    1.39827427220121   -0.70669372340974
O           0.73968615527116    2.85893803809704    0.37594469370015
H          -0.04851613746002    3.10772890048624    0.97784799741689
H          -1.04151972454184    0.43612154456028   -1.07855429345218
O          -1.17819426370722   -0.95537299745639   -1.46114541910638
H          -1.03188581701920   -1.45127344040096   -0.63992199647267
H          -0.34633028059571   -1.09611518338161   -2.00554655963044
O          -0.20554065361408   -1.89283994642837    0.97013248797279
H          -0.44371409015364   -2.25418518649613    1.82595923125624
H           0.05451311867321   -0.95534330531281    1.13310259218462
O           1.62169632971898   -3.20436696836499   -0.64980561023382
H           1.05837775798615   -2.75144234646594    0.00147199527645
H           1.16910653168610   -4.01421973651290   -0.89193341380251
O           1.19752409259408   -1.21208495527971   -2.48498312882179
H           1.54651622669921   -1.95831099375184   -1.96157776006025
H           1.53617756734720   -0.41645766567883   -2.04475402168818
N          -1.34089508378993    2.96660271509716    1.86971957708972
H          -1.52507851481200    3.52802565137788    2.69045626318411
H          -1.12730600724151    2.01356368619872    2.14583463428682
H          -2.16219651031160    2.95665178190799    1.27965435923172
