    23
        -45.36818730  Gyration_radius:  2.28563172132 Dipole_moment: 6.123
 S           0.79150574420250   -0.21791696302104   -0.20234044531161
O           1.14237696206445   -0.14865564258640    1.21591243473191
O           1.55774107763603    0.68398552089147   -1.01868738223208
O          -0.72969313961336    0.21334947194450   -0.26659897430530
O           0.76742972709324   -1.60588847662911   -0.67328403997196
H          -0.48832043541434   -2.13029137644134   -0.21488257394498
H          -0.73569141412426    1.21499280657615   -0.35830168962105
O          -0.95527854022422   -1.05078442674842    2.45252881232346
H          -0.07666272201403   -0.74531049457050    2.10389654578722
H          -1.44815681424085   -0.24629990135622    2.62983404860287
O           0.19484012420969   -0.33202099408320   -3.16030442381504
H           0.39054134953614   -1.24365772355052   -2.93213397626898
H           0.75296307027952    0.18493776543507   -2.56304125660552
O           1.66082015287034    2.47039913329966    1.20677141495653
H           1.52338978419769    1.51649429720638    1.37102457487482
H           2.40605352641711    2.50510659681194    0.60117297562987
O          -0.39581921566029    2.74951465793179   -0.46463397423375
H           0.06054134581001    2.77389710650036   -1.31061496526151
H           0.31352015238300    2.81075700003010    0.22164629097248
N          -1.48029725189685   -2.34012718586687    0.22751273464317
H          -1.40756724738160   -1.88487421372718    1.19210041582904
H          -1.67874589258245   -3.33424820966394    0.27865935020577
H          -2.16549033355096   -1.84335877838431   -0.33623589698145
