    23
        -45.36427703  Gyration_radius:  2.28832615453 Dipole_moment: 3.482
 S           0.64433581314095    0.96167815091784   -1.08776112140639
O           1.31282129905675    0.38451150933121    0.05527009780131
O           0.60940906592575    2.39051688116038   -1.10999145890475
O          -0.81908467573727    0.41074129398125   -1.11397257315548
O           1.21736491116412    0.40066822502082   -2.37290511278642
H           1.45604435299575   -0.59611359621412   -2.16409191921481
H          -1.28665470019116    0.71421896517771   -0.27823338895670
O          -1.82373868897517    1.34375441026788    1.07322779148209
H          -1.02364204989933    1.83973050525432    1.39538297180721
H          -2.49268325163968    2.00676783798114    0.88794534840810
O          -0.78642688134376   -2.47517118592291   -0.95077175956261
H          -0.74809433875957   -2.24853477402072    0.01226051901878
H          -1.22590349504865   -1.72631726354588   -1.36462623755566
O           1.68968729965892   -1.90777988915378   -1.55172561479085
H           0.77170075734201   -2.27753619910333   -1.39689372241539
H           2.00475389904172   -1.61916274229791   -0.68798157458601
O           0.43959010105434    2.59101872266251    1.54682667002640
H           0.55669651265934    2.84693170053421    0.61381300895458
H           1.09412552855734    1.89823513275286    1.68341710138139
N          -0.46302995969199   -1.41888024967035    1.50876459778158
H          -1.25473896648022   -0.83571572966305    1.75309617368280
H           0.27929195606528   -0.79543575788753    1.19929540923829
H          -0.15182447891747   -1.88812594748436    2.34965476378901
