    23
        -45.35877535  Gyration_radius:  2.32191576022 Dipole_moment: 4.551
 S          -2.00160489090776    0.53940836827777   -0.45396612603865
O          -3.31281386392024    1.02797565090910   -0.66122929459670
O          -1.68952657784473    0.06648372076956    0.87840195703909
O          -0.97204051505836    1.63659938852143   -0.82862408858293
O          -1.69139644794899   -0.62601434002257   -1.42630928214639
H          -0.93446673847857   -0.39152601861209   -2.06440441334628
H          -0.10161237742863    1.51926898073350   -0.35166984785798
O           1.88068351141976   -0.82763211338662   -0.91142877265383
H           1.27954916957583   -1.36373440944996   -0.35176928664455
H           1.95384403150391    0.02177472335011   -0.45444549929350
O           0.32366906002655   -0.21774987292967   -2.90240777176423
H           0.38654103758556   -0.89158224507852   -3.58211969906069
H           1.01913975386411   -0.43711364643451   -2.21523044560370
O          -0.05758511787173   -2.01503144356709    0.55677272071069
H          -0.67398555913834   -1.27348120132182    0.73021994671021
H          -0.55653340542993   -2.63967216684754    0.02717070034896
O           1.27434031076818    1.48823807509877    0.47919243366632
H           1.02378938561959    1.08649914514166    1.37554567544804
H           1.54103922567906    2.39510577770714    0.63822342543040
N           0.47714944322432    0.37943757276712    2.71151393030398
H           0.47287878015509    0.78639026932273    3.63790172834869
H           0.84446777715416   -0.56213351498626    2.77919788413420
H          -0.48552601262999    0.29848928998424    2.38946411545026
