    23
        -45.37910821  Gyration_radius:  2.28589985975 Dipole_moment: 4.333
 S           1.45059414975894    0.23770905315551    1.25979438290731
O           1.61482486321619    0.98446677582577    0.02009327759548
O           1.04645193725511   -1.14294252502173    1.00642077708752
O           0.59483685175383    0.91232924595207    2.20888202191831
O           2.88261825390261    0.13868913071806    1.93189646390288
H           2.95512114114691    0.97259620678420    2.38500324019181
H          -1.04269584302222    1.26704530236706    1.82128011361351
O           1.58246775040528   -1.03812045843477   -1.65347465572027
H           1.60459541041605   -1.64549632846138   -0.90358155407206
H           1.74186779244968   -0.17125193713852   -1.22395756243669
O          -1.87268591592864    1.25442651606255    1.29815257890042
H          -1.80986177789540   -0.16362382953195    0.82279596646724
H          -1.62918754944968    1.71030334068654    0.45873903437399
O          -0.95467118331464   -0.74165279294567   -2.21619158328438
H           0.02826725553264   -0.87084225161270   -2.08790222974179
H          -1.14737057322295   -1.00291303851006   -3.11705651382039
O          -0.72740571971675    1.85165714036691   -1.01661719973321
H          -0.90062087448917    1.11107687045506   -1.61350042827827
H           0.17685715320122    1.70888747270398   -0.68058515827740
N          -1.50436580328257   -1.13659273595155    0.42185978758403
H          -0.49446615629665   -1.25017305396265    0.72294635232608
H          -1.51362568703732   -1.09115630883176   -0.61340993624069
H          -2.08154547543011   -1.89442178468759    0.76841283474726
