    23
        -45.36483855  Gyration_radius:  2.29272430321 Dipole_moment: 3.352
 S           0.27261478272850    1.22470312342777   -0.89085103066613
O          -1.03009777089788    0.81555340591077   -0.41388978319537
O           0.36432285109990    1.38263944839956   -2.30995710186983
O           1.30939297588015    0.15109800726485   -0.42638304701484
O           0.73511806762617    2.46117985131420   -0.16011567680543
H           0.32543745483617    2.39337876028588    0.82353734651169
H           1.04517532383599   -0.73043480507246   -0.81521583412104
O          -0.34510936619410    2.06918956433959    2.03218527221564
H          -1.17749243452386    1.73662953656433    1.67873559070172
H           0.15770124559163    1.24380145023454    2.36373993457743
O           0.43305029941683   -2.01356496768201   -1.56828612257847
H          -0.29632852765936   -1.59774438324897   -2.10635205611093
H           1.05121602371547   -2.38819598938287   -2.19941965222301
O          -0.96889113455753   -1.56194087726753    0.92482931049548
H          -1.14391556197132   -0.71733710561164    0.47722533462594
H          -0.57958105803417   -2.13114326236969    0.25398212843987
O          -1.34309789304120   -0.59128224594869   -2.86061840728728
H          -2.02006660359368   -0.34155439904217   -2.22428235077661
H          -0.76567004644209    0.19275357527557   -2.93018379646176
N           0.88770375089790   -0.15309693462900    2.60103597400060
H           1.14126237805290   -0.45968771496543    3.53081026614232
H           1.71584363742156   -0.15811968022543    2.01850113899135
H           0.23141163581279   -0.82682435756424    2.20097257238005
