    23
        -45.37303922  Gyration_radius:  2.28374592485 Dipole_moment: 3.075
 S           0.70523441685980   -0.51530625697567    1.51517142978816
O          -0.73859514951072   -0.31444589333578    1.40633845586486
O           1.45956497999124    0.64804677952703    1.08641896679819
O           1.13147525431201   -1.73800492669913    0.86864680498193
O           0.98410566645436   -0.70144468195442    3.06148794216019
H           1.88298788991233   -1.01229760067889    3.05474383884606
H           0.85746003083728   -2.20566419822043   -0.76843468503040
O           0.94041963927340    0.49759605172333   -1.56217118988065
H           1.35000486229829    0.54259849089470   -0.68117843296217
H           0.07797871230098    0.93741361754146   -1.44658684218964
O           0.47165593996814   -2.08466701865463   -1.66323209235200
H          -0.89349069981321   -1.75055745854161   -1.25282536389677
H           0.78164825557976   -1.17832783902038   -1.90570961995238
O          -1.41809638357020    1.47267082797326   -0.53295964108762
H          -1.26912570756963    0.98638240744555    0.29743620621349
H          -1.01284464883408    2.33701090613595   -0.35162462752290
O           0.49763824094325    3.11897021546935    0.48255371271761
H           0.86123454093107    2.28162069587737    0.82784986133502
H           1.21838793984304    3.54077620004640    0.01191656472377
N          -1.79519271947871   -1.33706965991984   -0.75222805080848
H          -2.07310326477896   -0.46113811469486   -1.19984400212971
H          -1.45244262987871   -1.07044683792473    0.21659699324641
H          -2.56690515607105   -1.99371574601052   -0.71236620886266
