    23
        -45.37749254  Gyration_radius:  2.24585999298 Dipole_moment: 7.301
 S          -1.38054820296078    0.54429117371429   -0.37886474404929
O          -1.63026504871146    1.02078461948763   -1.71579345763819
O          -0.18187236208139    1.16239835745681    0.21033035381202
O          -1.20993485441550   -0.92524419838562   -0.35388624728841
O          -2.59131977639077    0.89140851271557    0.50940132760175
H          -2.25065354696354    0.88576237902707    1.45159276480087
H           0.05017845566530   -1.23194675924225   -1.11587247388716
O           0.75359294169967    1.13085477837201   -2.71137843170906
H          -0.21379149001267    1.15519122004469   -2.48906180062293
H           1.13685330982262    1.83983257136480   -2.18959686382163
O          -0.27662842567852   -1.54172490901726    2.08424499704726
H           0.65033436924175   -1.35480773984905    1.89048632455359
H          -0.73521512228093   -1.48365050741736    1.22399921170887
O          -1.24494884523900    0.87497089115819    2.70013064745179
H          -0.96181911896264   -0.06707167756899    2.73444388502696
H          -0.58885815237757    1.31688700351636    2.14406574007648
O           1.92792025401669   -0.23522502608088    0.78646017138612
H           1.13291215800747    0.33642737842447    0.60458305363005
H           2.59682001975279    0.34195915099380    1.15693199548560
N           1.03980787591060   -1.21046244700623   -1.55215818626630
H           1.24191935233684   -2.04569472787570   -2.09054072926686
H           1.68718901323363   -1.08008551630518   -0.75520132875380
H           1.04832719637723   -0.32485451752126   -2.14431623927761
