    23
        -45.36237658  Gyration_radius:  2.41751739524 Dipole_moment: 3.452
 S          -1.00932822324805    0.87608378024157    1.11627387337663
O           0.31334947299578    1.44682446206801    1.18901819123127
O          -1.14767875604848   -0.41081296937755    1.73447846468563
O          -1.45498256300450    0.83254238159752   -0.33625003536132
O          -2.02175577713878    1.85290956630457    1.76256880230346
H          -1.82800222736027    2.70381937247641    1.30208360942001
H          -1.22120729906247   -0.09982514620066   -0.90497159125531
O           1.57392680652644   -0.65141653797486   -2.31755733493508
H           1.87902600860818   -0.58146175907594   -1.36795402003098
H           2.06856049775055   -1.37121041376874   -2.71270494235778
O          -0.90790072680739    3.60398310849439    0.18032376768970
H          -0.13399266042079    3.08402768206487    0.45496910885444
H          -1.14924448114325    3.27936234745837   -0.69214555039680
O          -0.29989749345696   -2.64622190499698    0.63795739495182
H          -0.59202768731718   -1.86808317680301    1.16209688405876
H          -0.88625612424972   -3.36500367319787    0.88219405021124
O          -0.85961597162393   -1.21480255257389   -1.55229018613622
H          -0.64551424941751   -1.85514713558420   -0.83327431337320
H           0.01530982348995   -0.97447933192674   -1.97128048766360
N           2.08974894116904   -0.66043005305794    0.28742105313308
H           3.01560977194374   -0.60578079411875    0.69348318813771
H           1.64806671313185   -1.50314473156217    0.63875456859196
H           1.55380619464214    0.12826748949610    0.64680549486162
