    23
        -45.36237660  Gyration_radius:  2.41771334497 Dipole_moment: 3.445
 S          -0.62537694267477    0.05454018806291    1.62445036176141
O           0.77823821630845   -0.26596555995210    1.71152423426852
O          -1.46153787485342   -1.01189709732393    1.15437923020497
O          -0.80093697566093    1.30000853383380    0.77073652849192
O          -1.13084104604510    0.51085233558416    3.01478469915257
H          -0.48198148334458    1.21153752070736    3.26324723951132
H          -0.95767989282598    1.13984141821777   -0.32294659378495
O           0.92131310671575    2.11970574653227    2.91643083359932
H           1.29610502306542    1.31781350796215    2.51502113029888
H           0.69428938906174    2.70101105628392    2.18471944423402
O          -1.07985733101162    0.88890567427321   -1.63321805684087
H          -1.31713055391181   -0.06741247804277   -1.67701880766634
H          -0.14375114864672    0.95212642242756   -1.97715305439962
O          -1.63197093727545   -1.71679139248420   -1.37418452435605
H          -2.52182182570642   -2.02148262540183   -1.56246319598865
H          -1.59269579062546   -1.57857932627564   -0.40217943067395
O           1.41024916811128    0.71233143630642   -2.40433815245153
H           1.55104556972017    0.42110312891131   -3.30669243952903
H           1.55691605059630   -0.08530874899611   -1.81964183573331
N           1.43952164131669   -1.44400335843270   -0.85449017904640
H           1.29969514406313   -1.07404269050896    0.08466536217427
H           2.20028806744063   -2.11026904432323   -0.80569323500926
H           0.59792041619486   -1.95402465737092   -1.09993954822089
