    23
        -45.35994378  Gyration_radius:  2.38132083232 Dipole_moment: 4.077
 S          -0.42803098707708   -1.44382003576926   -0.61297079839263
O          -1.26714823768695   -0.27388441656190   -0.52340658295386
O          -0.83985090633200   -2.53920550853805    0.20595985578712
O           1.03033637199152   -1.02533812076687   -0.25417487399695
O          -0.27504478788247   -1.89494892233240   -2.05859394826680
H           0.19612912077211   -1.15192885035720   -2.59632257047048
H           1.05364485249800   -0.59014482897958    0.63958791846071
O           1.37579196090710    2.38977017979906    0.68707233631537
H           0.90409438344472    3.08079357461036    1.15547512168249
H           1.31209815419543    1.59018642635449    1.22968999822481
O           0.00126964987340    1.80179978087445   -1.62628029189338
H          -0.59932494216289    1.16203523297255   -1.19869471640646
H           0.62576284441837    2.07267440616438   -0.92874684391523
O           0.93688953373624    0.02389675894598    2.13770812917988
H          -0.03530411907978   -0.21945749929442    2.30598831556596
H           1.46708992132179   -0.52352225772520    2.72016693882563
O           0.78796269224036    0.01550782669880   -3.32604786166151
H           0.59877438691662    0.78432098256166   -2.70892389985474
H           0.28364359643813    0.18421994666147   -4.12537364301736
N          -1.53848371949466   -0.75667559019002    2.30452794731811
H          -2.11738359817462   -0.95158266000497    3.11252888396002
H          -1.43178748626291   -1.61485602928735    1.76444547692902
H          -2.04112869459047   -0.11984036582945    1.69638510858300
