    23
        -45.38497751  Gyration_radius:  2.25791418964 Dipole_moment: 2.527
 S           1.07751356356986   -0.30732278795378   -1.49532217147881
O           1.79513135027084   -0.28060593425406   -0.22202445552058
O           0.85637753152320    1.03034974684055   -2.01100563898611
O          -0.12172134879920   -1.11613837933692   -1.43335450515303
O           2.03931820809595   -1.02863316522823   -2.52638631710173
H           2.71565994765112   -0.37260556674142   -2.65664829369804
H          -1.60821856324004   -0.48727812500000   -0.82777047806252
O           0.68320895679294    1.35133836606866    1.56732829220998
H           1.25974140882016    0.83209549849114    0.96753470048538
H           0.16264631787567    1.91971428215079    0.97469115093891
O          -0.81465024443653    2.32682319805836   -0.52374691969502
H          -0.18003334012494    1.86409526787303   -1.13316717681787
H          -0.98378414444914    3.18284908973591   -0.92043245044209
O          -2.23966264613123   -0.00483342893321   -0.25478079442953
H          -1.98631468409746    0.92896327944455   -0.35471430625523
H          -1.64819851617625   -0.44032571806623    1.15772357403819
O           0.62294424593169   -2.41270645507343    0.77521440274587
H           0.15864872776931   -2.46474032279873   -0.07413916472971
H           1.30553972332145   -1.73791469690789    0.58377927422232
N          -0.96810662755925   -0.65497397491150    1.94997621639943
H          -0.37692621038849   -1.47701870631152    1.63031492232345
H          -1.43577118229339   -0.83566442576203    2.83016775236005
H          -0.31334246387390    0.18453295871485    1.99676236638045
