    23
        -45.36893106  Gyration_radius:  2.2916339829 Dipole_moment: 5.444
 S           1.18420830367815   -0.85714090297739   -0.48108501760890
O           0.39079640423800   -1.60480347542101   -1.42075070995418
O           0.47694198449627   -0.69692528700347    0.80958550912968
O           1.58186026966016    0.45502428037262   -0.98175511772428
O           2.47923501257803   -1.67218420301898   -0.18865750954963
H           2.88904593821284   -1.19083406670652    0.55464493510987
H           0.50068803089248    1.38385554116503   -1.37572761797892
O          -1.69397032561684   -0.17799669727524   -2.17588744707099
H          -2.15447144256571   -0.41611244424159   -1.34553242216473
H          -0.92360163719112   -0.78711986308770   -2.17495194047687
O           2.73240242830370   -0.35944286295617    2.10661007939129
H           2.79115111939237   -0.94385516456998    2.86569019772884
H           1.79845380797858   -0.36821109097134    1.81464141239248
O          -2.13420708838934   -1.10058467032222    0.32310450976755
H          -1.17862391735028   -1.03284886624035    0.52745798495222
H          -2.30150599013039   -2.03642935015001    0.19701710408345
O          -0.40851259176169    1.86772632461060   -1.48687854534582
H          -0.73558771251757    1.94366909169229   -0.46098888033652
H          -1.01279212614800    1.12085821854184   -1.89711320545232
N          -1.04023378245862    1.71395297215930    0.95224615763840
H          -0.41851192905442    0.92037849747753    1.12514556797791
H          -1.98917137441695    1.39066821205831    1.09728966792288
H          -0.83359339182586    2.44835578687390    1.61589530755869
