    23
        -45.36715509  Gyration_radius:  2.5301190261 Dipole_moment: 3.155
 S           0.46966925877653    0.68889175252841    0.29749087182858
O          -0.52180752199315    1.27419223838425   -0.58726696356069
O           1.66236173951669    0.23439811882205   -0.42121045269742
O          -0.09667300450816   -0.39457642815717    1.10660840780191
O           0.97405922632561    1.78892214301515    1.27604690655718
H           0.22345688162627    2.04722103443029    1.87603909645406
H           0.65857156940699   -1.64776131345226    0.81669944242249
O          -2.70611252466682    2.00937883720232    0.66072189060945
H          -3.09543250811956    2.66644425905738    0.08055642309717
H          -1.93884800746077    1.63690555257364    0.16594992937377
O           0.22292859377220   -0.55038340575711   -2.52102926861114
H           0.92478364876135   -0.21312071667844   -1.93223549163785
H          -0.53173200801250   -0.00274401054431   -2.27665830325938
O           0.32695851980475   -3.12003128345772   -1.91240502334355
H           0.15588515196583   -2.18798096365818   -2.20288805562684
H           0.77770534040261   -3.54295345489234   -2.64510059336211
O          -1.07345019523414    2.60224450415089    2.68212777781185
H          -1.79540601670406    2.33177611749288    2.06937044746878
H          -1.06591210003879    3.56199155606340    2.69015210793807
N           1.44451257127813   -2.22155920067526    0.33110527872645
H           1.97465363363775   -1.40353772522765   -0.04442349262867
H           1.03216113775272   -2.75429209241875   -0.47626457667179
H           1.97766659357629   -2.80342551879917    0.96661364129177
