    23
        -45.36715501  Gyration_radius:  2.53012072106 Dipole_moment: 3.156
 S          -0.03789855519854    0.80584476524135   -0.36449793092668
O          -0.32184179487630    1.02650634887263    1.04232843743908
O          -1.23521946518321    0.44622264549469   -1.12781382315344
O           1.02108212163887   -0.18995158069256   -0.55478387243219
O           0.45984681532981    2.14273477489105   -0.98678712533483
H           1.34153275646374    2.36997772593674   -0.58544744842134
H           0.47233344707689   -1.31841059055315   -1.36171105006725
O           1.82016910698750    1.57822579400943    2.44827555282507
H           1.48058853627904    2.03043270026800    3.22297755738030
H           1.02751224360274    1.26386551168866    1.95311017476137
O          -2.22646776315809   -0.96725835260502    0.90143874686719
H          -2.11137129780445   -0.40416726299718    0.11239334666433
H          -1.66657785964382   -0.52798406123217    1.55159620969679
O           2.66076203595682    2.82423087881095    0.24717477827940
H           2.59690145163215    3.75395552880657    0.47673344806463
H           2.52953618139870    2.31874724720978    1.08198639079727
O          -1.58135119920202   -3.31440855841907   -0.12779479644301
H          -2.41021858427055   -3.77848026559686   -0.25600955490702
H          -1.80563886609213   -2.50035755881214    0.39126081340286
N          -0.30776627881168   -1.82193486032235   -1.92783782104669
H          -0.74620154778816   -2.56295878223186   -1.32417135465667
H          -0.00026857292600   -2.16753933255465   -2.82932461567415
H          -0.95944291141427   -1.00729269427520   -1.98309608276913
