    23
        -45.36022651  Gyration_radius:  2.36137637536 Dipole_moment: 2.365
 S          -0.02070317155080   -1.57405492350888    1.15392353378173
O          -0.26723915091010   -0.76819983341801    2.32066222126318
O           1.13430430602543   -1.17444659324545    0.36918100852971
O          -1.21285979425572   -1.71101060127348    0.30760526316093
O           0.29847516647008   -3.03523878256114    1.68056352307436
H          -0.27842324204405   -3.07853291935383    2.43549179473503
H          -1.37788659893835   -1.07285513465041   -0.94160156182520
O          -1.41093538774845   -0.50038335518237   -1.83278350660223
H          -1.69232261646680    0.46196219891631   -1.49678043019718
H          -0.43279181128687   -0.44956922732363   -2.11452056904718
O           1.11874832160562   -0.57307543490670   -2.15653727329055
H           1.22107072856975   -0.78414740460008   -1.19241713861812
H           1.46799387827585   -1.32787941384929   -2.63406476074296
O          -0.61926322843562    1.67899269478788    1.27624756940767
H           0.31527214086143    1.85248027102432    1.01752837884062
H          -0.58897145256597    0.82356780269231    1.74535591626046
O          -2.02927132208290    1.71512207917710   -0.85646044515997
H          -1.46261133773956    1.74731681385460   -0.01378935981495
H          -2.94097859191861    1.74037327669605   -0.56004126945913
N           1.96368160747665    1.62754923945334    0.45566738021462
H           1.90837087089112    0.61504556423886    0.54063938695802
H           2.74760300730921    1.94559472975106    1.01051847074160
H           2.15873766846705    1.84138895328063   -0.51438812221923
