    23
        -45.37884012  Gyration_radius:  2.38654819848 Dipole_moment: 5.864
 S           0.70265292626689    0.31205242818094   -0.58637684500558
O          -0.00686626344502   -0.94282314910692   -0.24091928759883
O           1.52907212579316    0.73288755072149    0.52506805049124
O          -0.25559218312135    1.33141754281062   -0.99350777820942
O           1.62293676689158   -0.01134075638631   -1.78755841246773
H           1.02627752989646    0.08931718426309   -2.59104769797940
H          -0.72765055885212    1.99326978597081    0.44008615569405
O          -0.84260243750885    2.19629790302392    1.40004365606309
H           0.01695279822749    2.52502305385865    1.67799124568850
H          -1.00006968426836    0.71052173316951    1.96663551895248
O           1.66180540294456   -0.34807441896133    2.91843092802321
H           2.27943237340254   -1.08016099851853    2.88322524424174
H           1.75242045567101    0.11965382372284    2.05425955729021
O          -1.27809022544671   -1.89127705722649   -2.37003645442541
H          -0.83569522213414   -2.71153238527619   -2.59543339423475
H          -0.86587212153809   -1.57951065302564   -1.53576255558843
O          -0.25766942063334    0.33665980008695   -3.49310298008049
H          -0.77465330691413   -0.47673533423951   -3.31652846661323
H          -0.57309707242205    0.98408722587466   -2.84339423591153
N          -0.86778423389016   -0.33496930781403    2.12033740945406
H           0.00302523404858   -0.46020874911139    2.68879706297484
H          -0.62665460140322   -0.71436286027001    1.15055838561524
H          -1.68227827154527   -0.78019237174737    2.52823491361413
