    23
        -45.36866957  Gyration_radius:  2.27858527197 Dipole_moment: 3.039
 S          -0.83088976565910   -0.14653399967406    0.15399529975937
O          -0.84043047247770   -0.19406049443304   -1.29349440984900
O          -1.52076765145072    1.01419819011818    0.68646072695513
O           0.56363198327724   -0.18919991620174    0.66206699426593
O          -1.50488329699431   -1.44396757952042    0.67610197082733
H          -1.55230975868857   -1.29078966000768    1.66964205244248
H           1.42671330356036    0.76167773282894   -0.08309806271636
O          -0.40072205911869    2.63297196762948   -1.06579604100067
H          -0.89050306125104    2.17953617229439   -0.34004741942672
H          -0.82498358576222    2.33008334623401   -1.87380269107876
O           1.49286885833447   -2.28571979603278   -0.73054429872191
H           0.74356604932917   -2.87793035539253   -0.81635228185385
H           1.21829635924563   -1.60267126834360   -0.08854806972807
O           1.44300452614846   -0.34756209003921   -2.57513363894425
H           0.48079267030406   -0.33243697196129   -2.36716711517539
H           1.74604827940391   -1.16279787174630   -2.11941124340818
O           1.81056186269938    1.37931077955789   -0.82621358574477
H           1.79711198739452    0.70240686271725   -1.67162647430755
H           1.03471848814145    2.03376637545819   -0.97668330091319
N          -1.39647829660647   -0.49227252961683    3.08272363055089
H          -0.44288567204234   -0.52494763969581    3.41920991234364
H          -2.02332130613428   -0.53725298194772    3.87570044588913
H          -1.52913944165306    0.39419170779016    2.60201757981061
