    23
        -45.37229480  Gyration_radius:  2.37554317993 Dipole_moment: 6.539
 S           0.58536294516083    0.56736457005814    0.33800014001047
O          -0.01709915737743    1.28541822271682   -0.77902158960762
O           1.89886896171316    0.04530386023354    0.02664923753247
O          -0.37258809023692   -0.63054080434674    0.66454060225080
O           0.55080847216136    1.36573699272097    1.56859109779912
H          -0.79540956379357    1.28495110957236    1.96799253992916
H          -0.25619525790948   -1.35606112857871   -0.05323613353955
O           2.48103498509278   -2.57208595465790    0.11145980950077
H           2.35308599676414   -1.60991603008366    0.22924704525156
H           3.28425073030999   -2.66931206890455   -0.40333036126097
O          -2.37945427281568    2.19882676183531   -0.28151042539939
H          -2.32876091901936    3.14037504761853   -0.45631678906372
H          -1.50181375803252    1.82709650398135   -0.57630561905879
O           0.08645224499947   -2.36091119181015   -1.12560330397437
H           0.88721526700060   -2.73764840789234   -0.70786035013382
H           0.42632858913564   -1.78086305423172   -1.84369427614719
O           1.24676558484467   -0.40253162503590   -2.54190785823205
H           1.75502952029548   -0.21871162580109   -1.73247326511028
H           0.59759915239416    0.30933092203165   -2.55759648341299
N          -1.89938046364972    1.12290674052085    2.06149213547978
H          -2.29154175802784    1.61242362139851    1.20558828370641
H          -2.29002241418301    1.46184443996760    2.93419495220707
H          -2.02053677481005    0.11700309862349    1.95110062104275
