    23
        -45.37354293  Gyration_radius:  2.36562522086 Dipole_moment: 5.534
 S          -0.21248168095699    1.24506760102898    1.48467811305733
O          -1.13363313952919    1.07366077635649    0.35137110860394
O           0.72816965439984    2.31616678043597    1.26981122186542
O           0.37184437628910   -0.01760414902344    1.87774893858137
O          -1.12919527700259    1.71165125697957    2.70089337252952
H          -1.05236875159564    2.65991281886946    2.65994123046966
H           0.49982516887597   -1.50428440497420    1.08400211180625
O          -0.78262425180856   -0.68197257815785   -3.00136350107660
H          -1.06550917142295    0.09956792124171   -3.47926742290372
H           0.02435834461607   -0.42049347111235   -2.51577200055278
O           2.83919367207715    0.81560985313689    0.66018795848350
H           2.70511608351507    0.14972169242242    1.34035926467702
H           2.23284202193833    1.54066175914310    0.90700772128957
O           0.97557928875638    0.16457653115117   -1.14379879483774
H           0.29731909660594    0.65660361780529   -0.65532385676871
H           1.81877987317318    0.39683831965569   -0.69904115447985
O           0.49755305573371   -2.16749932593393    0.35818905643754
H          -0.94283957941329   -1.83780328994322   -0.18373855539586
H           1.02827597608169   -1.74871388658684   -0.33558186628521
N          -1.76935907945689   -1.27841226190861   -0.57524674704647
H          -1.66397757371704   -0.31777426518206   -0.13180030897739
H          -2.66763860818794   -1.70060117751715   -0.37304466476724
H          -1.59922949887858   -1.15488012779151   -1.60021121459698
