    23
        -45.37354284  Gyration_radius:  2.36538172238 Dipole_moment: 5.537
 S          -0.31616399668706   -0.93675816514766    1.67884643947802
O           0.59228590021557   -2.05567961538131    1.70776448468988
O          -1.18782685272618   -0.95463976016664    0.49479341000102
O           0.29839090573453    0.35996649376347    1.85510471544167
O          -1.29367547931914   -1.14012727430768    2.91997096179029
H          -1.25649784195467   -2.08181803613429    3.05596147419138
H           0.51028943470159    1.66795730027842    0.80576660180702
O           1.01233675585183   -0.40405205890608   -1.04480846588631
H           0.29840539602903   -0.77590243872503   -0.50383653787781
H           1.82875824966745   -0.57206012762361   -0.52706594406868
O          -0.63701487336167    0.12370540932861   -3.10776511529557
H          -0.92953005331820   -0.72612862375749   -3.44159172647818
H           0.13964083028802   -0.06371007501903   -2.54453428082532
O           2.78052306855105   -0.75704552711200    0.93001679962978
H           2.13887545426726   -1.40585919180888    1.27867708123069
H           2.64282363026543    0.02796299051316    1.46745601736843
O           0.56067857561754    2.18361634137612   -0.02982816084005
H           1.10451730192452    1.62880100383020   -0.60830307691822
H          -0.86755185726798    1.79713620534422   -0.56754373766021
N          -1.69706133985425    1.19724658469247   -0.88547242320712
H          -1.49012301101001    0.87698685533406   -1.85989584493344
H          -2.58684141854259    1.67519011934422   -0.80858544579365
H          -1.64523877899202    0.33521158033183   -0.26512721587688
