    23
        -45.36410770  Gyration_radius:  2.40988208782 Dipole_moment: 2.351
 S           0.47838322523337    0.34113094464137   -0.79047123060992
O           1.68087064444509   -0.23140990822527   -0.27559886362464
O          -0.33579179575019    1.03352381351693    0.18553469727311
O          -0.39182117652440   -0.75107963858377   -1.44752574636560
O           0.81075581243467    1.28372305455518   -1.94330309275245
H          -0.04574445114265    1.66326853889592   -2.35124344595125
H          -0.26103378814479   -1.59965490430055   -0.86911842892878
O          -2.73593746479673    0.93511975682420   -0.96980190286914
H          -2.80195203530653    0.00242376859937   -1.18958038227086
H          -1.96889798336422    1.01535260648341   -0.36956983671930
O           0.08497920089813   -2.59167689218280    0.17961951573861
H          -0.19561969098344   -2.09015827852666    1.00336556108058
H           1.04654055713625   -2.56790783880768    0.18149880017430
O          -0.41038953870774   -0.93318638391872    2.11218101914036
H           0.48511650639350   -0.84819868550610    2.51058652558206
H          -0.52347696261007   -0.12350767077880    1.59203559900925
O          -1.38472662439442    2.23087423542487   -2.80848534552693
H          -1.43857534461861    3.16496164579375   -2.59288305588522
H          -2.03368035621556    1.76739412960761   -2.21586548008628
N           2.23580524330996   -0.51619564228694    2.58862264420240
H           2.46394182682635    0.35409545417714    3.05273311701776
H           2.28902605160161   -0.34992928458550    1.58539183035498
H           2.95222814430852   -1.18896284081167    2.83187750201926
