    23
        -45.36215396  Gyration_radius:  2.39946896297 Dipole_moment: 3.335
 S          -0.84042503524670    0.12239718730379   -0.38764914770754
O           0.07442254891954    0.93046243526624    0.37362862998980
O          -0.24566268955533   -0.49070933438179   -1.54801316480291
O          -2.06329302297041    0.95752059115787   -0.81111606768744
O          -1.46332036519417   -0.96765254228547    0.47443566778439
H          -1.40269189143869   -0.78742255507775    1.49594932979315
H          -1.77615628693898    1.69297525313949   -1.44223397347367
O          -1.13876512141076   -0.69600617817565    2.94804379816172
H          -1.27394833707759   -1.55393180393849    3.35713301817817
H          -0.14320674331500   -0.55492578886138    2.89143834478628
O          -1.13225698843967    2.66318374880592   -2.48386791151809
H          -1.37622585084205    2.41201287648813   -3.37781181220944
H          -0.16623635921546    2.46319789469815   -2.38829267906006
O           1.27250208991934    1.68362892781408   -2.01102295861068
H           1.35108925075803    1.84249098611729   -1.06301962979435
H           0.93351578771295    0.77458800177717   -2.07245631164629
O           1.36217822959017   -0.40925970138812    2.36493280739487
H           1.49916875806760   -1.14805970967351    1.72877341070481
H           1.14873227637044    0.34449331862907    1.79467604682410
N           1.37670892898981   -2.17977528407967    0.27992169681007
H           0.88002956330137   -3.05215397120242    0.41482432901426
H           2.27366961705317   -2.40443489663131   -0.13453782911440
H           0.85017164089171   -1.64261945549521   -0.40373560379060
