    23
        -45.36787737  Gyration_radius:  2.49158369027 Dipole_moment: 5.094
 S           0.36076174612198   -1.57825819154634    0.48776670245499
O           1.59762749368183   -0.98779126164360    0.94093668295217
O           0.20111752792112   -1.55875268670876   -0.95235189169509
O          -0.80637871845397   -0.91770428765718    1.13143220869516
O           0.34443250477561   -3.06257097301217    0.97309567414705
H          -0.56784768366696   -3.35229514420597    0.78146332156041
H          -0.78487819312620    0.55951666792838    0.73073277107332
O           2.02365769906215    1.56674758021193    0.85097669472009
H           2.51575309846667    1.78425844628802    1.64414203745597
H           1.96270289902369    0.57653077302237    0.83607051610140
O          -0.38751639263814    0.61733959334115   -2.20692486212713
H          -1.05013639316046    0.37353878629435   -2.85493673399617
H          -0.08632374076079   -0.23839813935652   -1.79782623507072
O           1.15129311932116    2.94129193835112   -1.51984270784837
H           1.81163182547418    2.57779785987749   -0.92026590286578
H           0.88605575098299    2.21518389327097   -2.09456432797159
O          -2.30888539574467   -3.04288356514321    0.76430604083377
H          -1.97229330667665   -2.13204559961766    0.88672395272673
H          -2.74361761059954   -3.28704221984313    1.58443901595432
N          -0.60947610306689    1.52629372534130    0.30497257124910
H          -1.27555182951850    2.22739363055195    0.61100911872807
H          -0.63395849383866    1.39839434742846   -0.73594238126746
H           0.37183019642149    1.79345481682997    0.55458775418646
