    23
        -45.36002203  Gyration_radius:  2.40810221806 Dipole_moment: 3.467
 S          -1.02731303244422   -0.76515548426627    0.63011253993428
O          -0.60787892013771   -0.61777295133053    1.99634319245103
O          -0.11840984431857   -1.54801179373368   -0.18540824462790
O          -1.25867242136336    0.56730084638055    0.00313147652534
O          -2.40984060723259   -1.49556591341639    0.58093009109033
H          -3.01716554734130   -0.86284440685924    1.00941454522379
H          -0.38304329617755    1.01639953906546   -1.00571638932296
O           0.35332094310212    1.26747069580489   -1.73115671928076
H           1.22708334173122    1.41460727333474   -1.17464360481704
H           0.47014405378188    0.38777306242976   -2.24634565764094
O           2.38266113706696    1.53110044346584   -0.26366173075357
H           2.29573637808722    2.31273294959623    0.28508277094393
H           2.32251141110124    0.72818563351920    0.37215016983315
O           0.53821935516621   -1.09656914138340   -2.63527164776561
H           1.41041165267896   -1.48217991561522   -2.73908627008875
H           0.20206171500508   -1.40419005652730   -1.75075381011951
O          -3.57045033785332    0.78659201998989    1.28717021251973
H          -4.23118185738381    1.11217108590068    0.67135091161240
H          -2.70132907851635    0.99820574611290    0.89944569527871
N           2.10595874497925   -0.48386330144769    1.34567260767056
H           2.12808501276606   -1.34111211852004    0.80554789629481
H           1.15222042341955   -0.42988791816833    1.71511405939252
H           2.73687079391468   -0.59538628435201    2.13057790565584
