    23
        -45.36103529  Gyration_radius:  2.33151773413 Dipole_moment: 1.483
 S          -1.05632247558659    0.86640307322738   -1.35062047797316
O          -0.53497359653351    2.13560091639159   -0.90387212206906
O          -1.70241778159532    0.07880151383940   -0.32104138604479
O          -0.04979572195552    0.09152559785756   -2.08795128589954
O          -2.19207362745225    1.19804953376533   -2.40873693265530
H          -1.80626899831135    1.89344416054956   -2.93302384437406
H           0.51940667791232   -1.13549490982772   -1.67841520890275
O           1.00216590088508   -1.96541513060783   -1.22379165204263
H           0.42094785210176   -2.11711126493115   -0.37445439889819
H           1.88400026910298   -1.56157094079343   -0.88264843675802
O          -0.48059982129537   -1.93535723240200    0.81195709164427
H          -0.00708065501511   -1.46881677247816    1.50842976813915
H          -1.07566324291279   -1.25539783209828    0.40982616673216
O           2.96480887393149   -0.65468194269961   -0.27498577804084
H           2.34515336165052   -0.07509334761820    0.22920836554845
H           3.37399938275232   -0.09234453735405   -0.93578773599759
O           1.01039674073533    0.75850697260609    0.75434223260327
H           0.56699420732111    1.35453143190654    0.12379358610054
H           0.43149059757518    0.76369050768893    1.54179320272436
N          -1.13056951383833    0.72439744343010    2.47236952368708
H          -1.56780956799860    0.10099067182586    3.14082141377031
H          -1.62725500230409    0.62391185047743    1.58784210132985
H          -1.28853385916789    1.67143021722395    2.79494584737248
