    23
        -45.38062501  Gyration_radius:  2.25481418496 Dipole_moment: 4.364
 S           0.29106932847093   -0.31238179573432   -1.84643405217015
O          -0.66212511277993    0.76099033563446   -1.58997176387853
O           0.08021002857306   -1.43857496792731   -0.94084324874625
O           1.65868771391443    0.14221635411932   -1.89075571256613
O          -0.04001654872595   -0.87443743493712   -3.29236560129721
H           0.49005069589092   -0.30588047063999   -3.84034998856104
H           2.20376951170677    0.75909279572519   -0.37862276431828
O           2.25467623353673    1.01341715413880    0.56444925016803
H           0.85998051766803    1.97849696502471    0.65055547159261
H           2.09091145975363    0.19861767471511    1.05700671651338
O           1.01418617145187   -1.37664955409285    1.47688757863713
H           1.37057856485450   -2.23876850559207    1.69585014848601
H           0.71937962362708   -1.43480189597247    0.53009782817368
O          -2.37079076118192   -0.73872138596722   -0.26612266508482
H          -2.11361814863907    0.00091017618314   -0.84890199320371
H          -1.68362173564216   -1.39217794805869   -0.48715010591570
O          -0.10164091664834    2.19800741776753    0.57879069273439
H          -0.34847692632343    1.87393681976522   -0.31270467962383
H          -0.74854670950919    1.14763418331593    1.42535937953827
N          -1.15799176590542    0.23174122653245    1.86668491953136
H          -0.36346024390046   -0.41719350340840    2.00003571539744
H          -1.79005978929438   -0.18418336516197    1.11574841220951
H          -1.65315123088633    0.40870972453986    2.73275644239574
