    23
        -45.36197551  Gyration_radius:  2.50633288327 Dipole_moment: 4.527
 S          -0.89039710520239    0.68590507875679    0.06552544671620
O          -2.15861404074428    0.11287883228492    0.38802834053420
O           0.00983496418040   -0.20236268381067   -0.63678026803486
O          -0.18401059273676    1.20802411121780    1.33177176787357
O          -1.09994403624215    1.95778629477186   -0.75256189443871
H          -0.19744363771865    2.38114973666338   -0.96808454297328
H          -0.09928804068998    0.44331199404571    1.99671335225044
O          -2.68094210170166   -2.51291805126054    0.76806457192772
H          -2.62169575136557   -1.56846178852963    0.53267285755644
H          -3.13146923618126   -2.54262707245115    1.61427861478532
O           0.09822076567883   -0.81697687028688    2.84004762249093
H           0.07325254753280   -1.54748616562144    2.14858527905002
H           0.97730038159050   -0.83795151633445    3.22413011337270
O           1.13293045254843    2.96130582673664   -1.44473539776788
H           1.63560414144407    2.14863469965525   -1.75480131223498
H           0.96233614660244    3.49802600912704   -2.22196647871597
O           0.01406146902648   -2.46603008378882    0.85022835070136
H           0.11236215013543   -1.78095636159822    0.16670568522675
H          -0.92753665794344   -2.73112425477138    0.79785939324894
N           2.21000247659788    0.67473969597233   -2.21714390889090
H           3.10245401948868    0.39298633289356   -1.83188172293748
H           2.18141149434284    0.37504538627355   -3.18361096503185
H           1.48157019131450    0.16710083988164   -1.71304490463711
