    23
        -45.37611119  Gyration_radius:  2.37890603936 Dipole_moment: 2.486
 S           0.68447916369047    1.51290019587584   -1.11503376712912
O           0.07986985989801    0.39878248532395   -1.82923726208248
O           1.93823196398900    1.17844533353325   -0.47931732029159
O          -0.26247498153683    2.13243950675487   -0.19107479344296
O           1.01898731047702    2.60576379476767   -2.21318497444911
H           1.61350209874705    3.16415405826459   -1.72422531245935
H           0.15330804263548    0.11039092150492    3.48905931542766
O           0.85821163535679   -2.06228945004949   -1.21464953440023
H           0.66860608025377   -1.14180118972624   -1.50268180780056
H           1.58476523480332   -2.36738988022900   -1.75963560052347
O          -1.92292832782091   -1.23260472792453   -1.09050037076589
H          -1.37431390483579   -0.59364956119792   -1.58557037470071
H          -1.35082960241420   -2.00178645785770   -0.98670715251851
O           1.69073776925796   -0.92712575135352    1.14082753265702
H           1.41931152065416   -1.55637428462081    0.45063236879689
H           1.88587138997613   -0.10265564419619    0.65018194615860
O          -0.21492453204064   -0.51401706712855    2.86216332498220
H          -1.27078464079105    0.03687262578182    1.79516235560895
H           0.54026736932786   -0.75400332703133    2.25254832430688
N          -1.82540599360299    0.42950568430174    0.98365438083888
H          -1.22409133460787    1.18035920420477    0.51696701976539
H          -2.70692916933109    0.82190049452862    1.29540283464747
H          -1.98346697208054   -0.31781696352467    0.25521887736882
