    23
        -45.37611073  Gyration_radius:  2.37896329643 Dipole_moment: 2.493
 S          -0.94353078319769   -0.25730616360318    1.74550692907109
O          -1.15269785867928    1.01627429819556    1.07381937381815
O           0.39918744949165   -0.42958098238391    2.25054658402707
O          -1.37569891377870   -1.37753623530634    0.91335911806775
O          -1.89749558217364   -0.24573945112917    3.01132225390220
H          -1.52548076587648   -0.96264935099208    3.51332349819166
H           1.94353942794485   -2.54470493618102   -1.41156882267590
O           1.68427419539311   -1.66954379436746   -1.70378505203764
H           0.12158529896420   -1.33178932103949   -1.75167830390953
H           1.97125361227842   -1.05060954798782   -0.97333180020985
O          -1.21313756536634    1.59055498918009   -1.54993693036600
H          -1.45522249840364    1.50519599077490   -0.60733223216941
H          -0.37966913165507    2.07505169843140   -1.53505503753316
O           2.20753448069715   -0.11268739659913    0.31410504377942
H           1.98455002845882    0.81367742715223    0.11861334530507
H           1.64169877673618   -0.33869151964044    1.08034221078743
O           0.97853482444852    2.33795896476357    0.20688371385571
H           1.32236524689646    2.95270572280980    0.85638408127589
H           0.21579620750736    1.88823753743651    0.63372352102486
N          -0.88847628620593   -1.04848778612096   -1.61175383099279
H          -0.99908203602538   -0.00952512106693   -1.76161747255736
H          -1.13384550193366   -1.23150140201239   -0.58721901289229
H          -1.50598265553544   -1.56930363032767   -2.22465119773537
