    23
        -45.36295418  Gyration_radius:  2.30411533743 Dipole_moment: 4.269
 S           0.41507652118516    1.21719660661135    1.14289090373819
O           1.61516482181111    1.95090483593571    1.37090883069435
O           0.56201424436732   -0.20384725769120    0.96916693152663
O          -0.26876721611855    1.81283592888645   -0.12103801069438
O          -0.60867381410680    1.46193665459559    2.26080824429210
H          -1.34216737984716    0.73077592022080    2.10222515014023
H          -0.85512589185985    1.12294963985476   -0.56300681074555
O          -1.64500869316573   -0.00850750666267   -1.29684516909087
H          -0.79236847337952   -0.44877966492016   -1.63281453960606
H          -2.07529080390591    0.34575676884709   -2.07812871824254
O           0.61790906335678   -0.89177281446625   -2.12319680160127
H           1.24991517610401   -0.20210655060254   -1.84766307221446
H           0.83139501037164   -1.65835091694466   -1.55398053012391
O           1.32559984064593   -2.55074199599485   -0.09883095161634
H           1.03308428797215   -1.77042253402148    0.40439143446877
H           2.28137353387256   -2.56756182561618   -0.01920319697149
O           2.34589474784555    1.05966289724940   -1.14055418375330
H           2.29581383265941    1.88323884859526   -1.63103775054725
H           2.25806685485834    1.30398193161465   -0.20721494404903
N          -2.20450401517753   -0.42875358462075    1.61818258840691
H          -3.14374518103721   -0.53296270628460    1.97981635874822
H          -1.65907314631940   -1.24598586772527    1.86163801068060
H          -2.23658334018329   -0.37944681686906    0.60348623654784
