    23
        -45.36845406  Gyration_radius:  2.397703952 Dipole_moment: 5.232
 S          -0.09556557834138   -0.60620326061791   -1.40527159368048
O          -0.43027312145809   -0.73391227660098   -2.78933967481000
O           0.41255984358712    0.70261284613374   -1.01997963929061
O           1.10782874630547   -1.61916286314994   -1.07104650983113
O          -1.14750855836332   -1.04914895589530   -0.47562444952168
H          -0.37842083429234   -1.22698143538963    0.79440767517992
H           1.77159034285822   -1.32856553853415   -1.72816204529065
O           0.83055466140760    1.00363949557127    2.55561480076837
H           1.68668107219546    1.37704896237968    2.33777728177164
H           0.16547210584254    1.53934319925145    2.01063353496204
O          -0.73142213363930    2.17826047970524    0.89454492627324
H          -1.62389863202844    1.78517313085023    0.92610721913404
H          -0.30807427051609    1.77438702932732    0.10984995166306
O           2.21299848487704   -0.09650766866138   -2.91461378806421
H           1.88999713942000    0.61398667899212   -2.34232350887901
H           1.45846209342693   -0.30250952525952   -3.48290977465686
O          -2.96130058066337    0.63902303658511    0.57667858970858
H          -2.39481317089450   -0.04306383011673    0.16843081553354
H          -3.60603038556829    0.88527883733565   -0.08844413542005
N           0.36047547498967   -1.35960515955469    1.57368314718905
H           0.58241916257665   -0.39222607054180    2.01228259421040
H           1.17203113007887   -1.73117502725568    1.07889824933281
H           0.02623699822894   -2.00969209443645    2.27880637372596
