    23
        -45.37675817  Gyration_radius:  2.29626408886 Dipole_moment: 6.056
 S           1.00752906466597    0.19046524370385   -0.96982466228339
O           0.66041725615789    1.39486808115352   -0.20608945036685
O          -0.15931972041124   -0.32807469779441   -1.67119627994036
O           1.63128226836664   -0.81468845247405   -0.12902313041531
O           2.04822048065891    0.66012214322703   -2.03731411301372
H           2.24071392074194   -0.17456484789982   -2.50720251463402
H           0.48646659234620   -1.39553181268840    1.03224361460178
O           1.86974023501552   -1.91214330352876   -2.60275028872414
H           2.04156002449829   -2.01837132903111   -1.65657584700055
H           0.91993323803884   -1.74537643680501   -2.66232171617547
O          -0.26486909932358   -1.44628899816124    1.65522702076357
H          -0.17345155022552   -0.65215532267701    2.20389527554495
H          -1.61399738086992   -1.30102082455625    0.64155083291063
O           0.30457724536710    1.17331767138291    2.43802975670941
H           1.08673026342897    1.23230985092214    2.98858924990490
H           0.61596609020900    1.26693925713575    1.51319249506354
O          -2.17007082915624   -0.88809658063099   -0.06770092945591
H          -2.13819881628027    0.50529305502447    0.33128686116678
H          -1.54738435454218   -0.81399234778151   -0.82647852819459
N          -1.82773496583963    1.54906361663443    0.58209429571722
H          -2.47237468318931    2.25230797606972    0.23897732377522
H          -0.87317422636885    1.62889454886531    0.12480750819126
H          -1.67256105327972    1.63672350991133    1.58658323585806
