    23
        -45.37675817  Gyration_radius:  2.29630847607 Dipole_moment: 6.058
 S           1.11304888249355   -0.86764176064897   -0.00427806947702
O           1.01933720546225   -0.00063799639796    1.17638897382422
O           1.19446843930033   -0.07192731317354   -1.22190952043923
O           0.02572263034292   -1.82779859269778   -0.05027554228688
O           2.45763517790100   -1.64790525644413    0.15812972350402
H           2.46305426853660   -2.20299978627660   -0.64589818411210
H          -1.47511155910266   -0.99708522302183   -0.28312709847773
O          -0.84245705224016    1.56672854995571   -1.52951188163037
H          -0.04361803791635    1.00486001543006   -1.65222903404276
H          -0.45647364213981    2.15849702741798   -0.26332505324226
O          -1.37364036727775    0.34099828169039    2.32650520103355
H          -0.49001290354822    0.06029184059995    2.00786833482432
H          -1.64243819048096   -0.31296777431083    2.97336789464102
O          -2.17497900496387   -0.31509297304989   -0.26710046060509
H          -2.20842504892159   -0.02972211053120    0.65890438166794
H          -1.53146963862688    0.91842268705773   -1.23341805499277
O           1.57974663351708   -2.62440598439509   -2.13180394883849
H           1.51936365785626   -1.69896656244087   -2.40309468535379
H           0.77072606308454   -2.78535794707139   -1.62616502375468
N          -0.06860241855140    2.34147572918645    0.76848518727782
H          -0.83060328488244    2.28416692663282    1.44437946331048
H           0.44553215439080    3.21096479525642    0.85503575766292
H           0.54919601576303    1.49610342722411    0.94307163950568
