    23
        -45.36515905  Gyration_radius:  2.42496922297 Dipole_moment: 3.942
 S          -0.89441903702364   -0.81759855642555   -0.14506119943786
O          -1.45482644175890    0.51449911784053   -0.03962175336150
O          -1.14745682929933   -1.67156444854917    0.97252887235812
O           0.62415373453892   -0.67642799379532   -0.36535835751300
O          -1.37005509350430   -1.46875398572345   -1.43933191377905
H          -1.44639728954209   -0.69564082502052   -2.11406069684839
H           1.10869615224112   -0.37426736204423    0.54235590125862
O           0.49828743560577   -1.99936917784001    3.06804303906489
H          -0.02412102230315   -1.75449163568055    3.83475725953588
H          -0.13331027073493   -2.06748211219574    2.32641467263562
O          -1.42901445343538    0.67164097662878   -2.75685656171125
H          -0.46067537237426    0.82140288476143   -2.92848177854976
H          -1.62498264892737    1.11139341758859   -1.91769558642853
O           1.59782067615138    0.04542681524669    1.79885074041902
H           1.40247302946927   -0.74465621008839    2.36037123761252
H           0.93493951268903    0.71808969915999    2.07276567721385
O          -0.54835491106647    1.56575215085361    2.22921672391836
H          -0.65043343985791    2.51805182433040    2.18220060594265
H          -1.00971477211631    1.19851549440472    1.44742724182319
N           1.24596739680913    0.82707757623902   -2.84135064900643
H           1.75242737438327    1.68845154277641   -2.67999831125580
H           1.70099819710590    0.33697781355011   -3.60102564357560
H           1.32799805295920    0.25297300397358   -2.00608952032716
