    23
        -45.36206416  Gyration_radius:  2.42545313875 Dipole_moment: 5.217
 S           0.14246767441254   -0.95499955244531    0.50783588667667
O           0.64278604498739   -1.34473773354040   -0.77982323685448
O          -1.25299612480827   -1.17573895506330    0.75751676622907
O           0.41660946748245    0.55319174980819    0.71142435842821
O           0.97954704432288   -1.64606182833968    1.59634513580001
H           0.46414447862279   -1.51061043693759    2.47929392432474
H           1.29814106272728    0.76170115772619    0.17664094239115
O          -1.15901771429770    1.88314123470406   -1.30357916883563
H          -1.53029814072746    1.04361285336508   -1.64504352628016
H          -0.84088375705170    1.68629299762586   -0.41595390731491
O          -1.77051102060863   -0.68724717341677   -1.91298650706889
H          -0.87650070384017   -1.05543225597691   -1.91012716841441
H          -2.13061066514172   -0.94819306295819   -1.05660695590671
O           1.11343608836702    2.05592686926069   -2.67730243996378
H           0.92879160194124    1.58744920838036   -3.49314713385041
H           0.24680659199100    2.14722222685103   -2.21274716101167
O           2.39691773577559    0.75494022195069   -0.78334919962219
H           2.05212856723439    1.33076416027362   -1.51839339246812
H           2.26183715689150   -0.15614828182614   -1.07860530048880
N          -0.62536230399453   -1.15014336696489    3.52686198408061
H          -1.36143843217792   -1.07543066625653    2.83013328887820
H          -0.51171993461953   -0.25604530597365    3.98544922122814
H          -0.88427469777421   -1.84345406013702    4.21616360053506
