    23
        -45.35939104  Gyration_radius:  2.52234226594 Dipole_moment: 2.494
 S          -0.42538263356592    0.37337521806352   -1.03116228496251
O          -0.88937865835342    1.13660501845094   -2.14936143509082
O          -0.76876014092181    0.91783331681133    0.25601633284520
O           1.12657316283284    0.22905631391174   -1.08865621890367
O          -0.90007828456904   -1.06942648455364   -1.15296866457748
H          -0.14336630563720   -1.72082500368806   -0.85145560606937
H           1.46124472913600    1.10230838457675   -0.68370089040078
O           0.58088085614428   -2.54286398894808    2.19042476183781
H          -0.26337398835855   -2.00755435942342    2.18934384892285
H           0.35563923047620   -3.40820950576017    2.53615107224007
O           0.20859006063007    3.57152082849077   -2.08068707912577
H           0.58101035516871    3.74042209396460   -2.94825287067614
H          -0.33237482007056    2.76120391928536   -2.16857107134518
O           1.49369994453711    2.48737533338840   -0.01745649023262
H           1.14948145409509    3.07546414528324   -0.72816212745211
H           0.74227312204140    2.33170068999366    0.56937252356458
O           1.01615317812847   -2.48912935550251   -0.38432993421859
H           1.72622909207341   -1.86115550721018   -0.55100978298756
H           0.91693100182289   -2.55192232789340    0.60810626150771
N          -1.69561495215155   -1.18382617334565    1.95082110286648
H          -2.34849257637804   -1.67847986177394    1.35436591189830
H          -1.38397431961621   -0.36679254384672    1.42435898967616
H          -2.20790950747668   -0.84668014026591    2.75681367068557
