    23
        -45.35637055  Gyration_radius:  2.28898548086 Dipole_moment: 6.035
 S          -0.70657052204918   -0.15874157258437    1.10509199124666
O          -0.17666505490898   -1.43117244611334    0.66683849932737
O          -2.09047621243474    0.02822413188520    0.82180831050749
O           0.14751245977339    0.96797873538826    0.48826392510800
O          -0.42731939502171    0.02671742233561    2.60050387077989
H           0.57271077126431    0.03547165528607    2.67072128417979
H           0.42689919252754    0.74523756421154   -0.48704714776203
O           2.33909334784692   -1.38322299825541    0.06927227956461
H           2.77454704332700   -2.23096912399395    0.17686701003181
H           1.38544295724472   -1.52649829489410    0.27916276160696
O          -1.61617069188492   -1.02450393741514   -1.67678491532941
H          -1.51248287841648   -1.94307108371476   -1.41610934464045
H          -2.03265480595296   -0.58990813411206   -0.91494837750932
O           0.77777822301256    0.16865563616114   -1.80071163920857
H          -0.05816344864430   -0.32337653941272   -1.97177107683112
H           1.46181921297880   -0.47043332650443   -1.55823064252946
O           2.14637078482215    0.15125186838960    2.33237295404432
H           2.36894136040378   -0.37615950501528    1.53678145203340
H           2.26068177374295    1.07140441852596    2.08049432127290
N          -2.17410611967888    2.28418883319069   -1.31732841111526
H          -2.13267711618213    1.60695182308150   -2.06978730040250
H          -2.51103101242232    1.79795188642577   -0.49390086109766
H          -1.22347988937830    2.57402298714477   -1.12155895323803
