    23
        -45.37605343  Gyration_radius:  2.36832196423 Dipole_moment: 6.080
 S          -0.26651830654583   -0.49132742444767    1.25642219295515
O           1.17974247364565   -0.53798738140245    1.13237985847496
O          -0.93473394941701   -1.34727156828392    0.30449612438440
O          -0.74107301579251    0.90732382354711    1.12565538430948
O          -0.66128224165352   -0.96791975842848    2.68750496725991
H          -0.33379912912716   -0.25158382296186    3.26596454698831
H          -0.58508937756554    1.22484520988090   -0.38377594709858
O          -0.06832667339858    1.44848361032009    3.60871247241526
H          -0.26438187175023    1.50713641699061    2.65191805338899
H          -0.79907521638165    1.87225692734235    4.06459387974943
O          -1.67084147375577   -0.82813409221305   -2.28028144931187
H          -1.91269685882888   -1.10949577748763   -1.38351922767490
H          -0.89992888788396   -1.40329926427717   -2.47884173318197
O           2.11908445367838    0.24427432359932   -1.12467352713382
H           3.00676122562390    0.58142817183765   -0.99532122724203
H           1.82031505814198   -0.08568616265498   -0.22916751350037
O           0.62975416813216   -2.10489495421250   -1.83853597245903
H           1.37205777178488   -1.49156197232375   -1.78692965433469
H           0.21853406888159   -2.08682447587344   -0.95788879450612
N          -0.35839522971019    1.25941897593363   -1.42480574994464
H          -0.55988198458398    2.17020337196500   -1.82307015265127
H          -0.94155448413255    0.47587363479447   -1.88551795793340
H           0.65132949062694    1.01474219836005   -1.50531857294526
