    23
        -45.37141690  Gyration_radius:  2.27811604331 Dipole_moment: 7.141
 S           0.56748182855139    1.19760472437202    0.19471306852665
O           1.45015776173385    1.64327801441053   -0.84567035514605
O           0.87800871563383   -0.15483098619294    0.66165133824023
O          -0.91131621539291    1.13336587711211   -0.37251193929716
O           0.41552053144006    2.11388020529250    1.32672021649454
H          -0.74217096963786    1.55975990521733    1.92557174913709
H          -1.01292756270394    0.32552111626546   -0.94313649068442
O           1.28178895410868   -0.49609857536562   -2.46393084371682
H           1.38685203139661    0.38143481922060   -2.04623393611309
H           1.91415057700325   -1.06300984010523   -1.97899749028217
O          -1.13311958219791   -1.05399881389926   -1.75584139617497
H          -0.17626200039108   -0.98003986475501   -2.06431406429100
H          -1.66284103117578   -0.97726452830344   -2.55174649094582
O          -1.36705758872146   -1.31945795117008    1.18257887140381
H          -1.68207454867369   -1.49593501995033    0.28852632652228
H          -0.41742032221838   -1.07853283640317    1.05070795764292
O           2.88967569618083   -1.48325313532807   -0.52584221438606
H           2.18545169064010   -1.07972462102826    0.01873234037093
H           3.64367456136047   -0.89512734949868   -0.45364391538431
N          -1.67617911712841    1.05649293219492    2.28104744521707
H          -1.66576033305580    0.07383256272557    1.85170061691143
H          -2.46888641780451    1.58209038518531    1.92453363939787
H          -1.69674666894899    1.01001299000554    3.29538556655525
