    23
        -45.36316480  Gyration_radius:  2.31811152286 Dipole_moment: 4.146
 S          -1.33906290715330    0.68641429448029    1.00266967152323
O          -1.22596680208988   -0.70412928583085    0.56393768180704
O          -2.54768895564881    1.31387917256526    0.57016437624220
O          -0.12452036909947    1.42521735111158    0.55878018724651
O          -1.27852201509999    0.69542127671245    2.56703243229077
H          -0.36758034659028    0.42973711746337    2.78419033429393
H           0.00451361007393    1.39298958319330   -0.89631218135906
O           1.42026162462566    0.48529122070378    2.43747573617222
H           1.86359792650931    1.18149056301978    2.92663429979858
H           1.03355962196967    0.90911662060208    1.63981232115025
O          -2.20950637932239   -0.07784103756987   -1.76839640431427
H          -1.92096939662613   -0.55921546795985   -0.95813920779591
H          -2.84601364207442    0.55970958053589   -1.41852826251648
O           1.63212394081278   -0.70237774943134   -2.14484130553157
H           1.26590029365258   -1.37876716585949   -2.71814486589994
H           1.62525558358721   -1.09061212053681   -1.19368083421224
O          -0.01521822488756    1.17524145616667   -1.91688070294230
H          -0.93004339352544    0.70012583840888   -2.02482429570747
H           0.72686937267012    0.43327633815585   -2.06214602622689
N           1.39329898542642   -1.64926576580004    0.25368190098075
H           1.91912380978705   -1.15937963943238    0.96878776618290
H           1.51294124888596   -2.64211988492201    0.41039624999503
H           0.40764642411308   -1.42420229578086    0.41833114878822
