    23
        -45.36462979  Gyration_radius:  2.31397503858 Dipole_moment: 3.663
 S          -1.39967465922378    0.41646024987955   -0.23744148147210
O          -0.28541075672373    1.15195033584335    0.33907044095185
O          -2.53647348139869    0.28202659379310    0.60354511167103
O          -0.89917769790555   -0.94730755105559   -0.70620328923213
O          -1.82851291145853    1.13075482420854   -1.53777468014369
H          -1.05561808966801    1.13806418418333   -2.16538663035240
H           0.13279993189877   -1.12651043446826   -0.53664125555619
O           1.96847785446118    1.37860662765493   -0.93994304226003
H           2.56973014411449    1.99452353636176   -0.51784511767894
H           1.14021045079874    1.37703608440176   -0.39849185091824
O           0.28829176133797    1.24968092738173   -3.05116313359010
H           0.30963778715058    2.05354035994633   -3.57482726382994
H           1.03966120899548    1.29003573520997   -2.42840031251778
O           1.52137395503055   -1.27445751384168   -0.21747647646716
H           1.95471495135675   -0.50926675890708   -0.62662908945119
H           1.48498247961290   -1.07167493955744    0.76331616280350
O           1.02017616476326   -0.43134995101369    2.19028435114476
H           0.25419437467236   -1.01211243765854    2.41555493419443
H           0.60800875842611    0.36463830673524    1.82591737495649
N          -1.31689999145415   -1.77044526720779    2.26422758419500
H          -1.81339694417139   -2.06377166368415    3.09687748134451
H          -1.27892080385828   -2.56363935568711    1.63527121560445
H          -1.87817448655709   -1.05678189252470    1.80415896653461
