    23
        -45.37811661  Gyration_radius:  2.37684506064 Dipole_moment: 3.942
 S          -0.88048863500523    0.18665840984005    0.17664928766433
O          -0.84970487850945    0.28419707304650   -1.28310099849110
O          -0.52627779966777    1.43722337766882    0.81398173972258
O           0.00484643796855   -0.90492222253145    0.62986100561320
O          -2.32145072312115   -0.16053179559687    0.61660536477694
H          -2.63144077306021   -0.96259823560616    0.10685610820487
H           1.41312008330663   -0.33329522847657    0.61896717518203
O          -0.48896474124664   -2.31585894064249   -1.62638849247010
H          -0.55866359304998   -1.36444570613796   -1.83380427916373
H          -0.11911344049638   -2.30927554424497   -0.73247671511828
O           1.41537334019482    1.86439928099139    2.53063160586978
H           0.61418346575726    1.83712282307110    1.95504658216112
H           1.12588151020273    1.56010472093442    3.39224451607355
O           1.28568600305418    1.80546748347012   -1.38264008533674
H           0.96640038429517    2.59488297555078   -0.93628610555164
H           0.47657597643776    1.25633848943983   -1.51026389463573
O          -3.01640438337930   -2.17607146498885   -0.87116605458652
H          -3.50224428721723   -1.82213668163403   -1.61934258316136
H          -2.12167021689287   -2.42636643132975   -1.21445212445049
N           2.27221256784118    0.30932203518321    0.55857525234529
H           2.07104777699595    0.93148388134485   -0.27802835358313
H           3.14506503279645   -0.19901773120393    0.47090536000751
H           2.22603089277035    0.90731942186519    1.41762567890320
