    23
        -45.35881005  Gyration_radius:  2.3413052938 Dipole_moment: 1.647
 S          -1.66727821665669    0.55438326893639   -0.71489085740550
O          -1.19697382002645    1.60587066053911    0.17120938441806
O          -1.52988077916582   -0.76622148895613   -0.14906032364358
O          -1.06005468141307    0.66785051128465   -2.04544204822308
O          -3.21252525590329    0.79816461395706   -0.93377859259643
H          -3.21691030131414    1.63555846813352   -1.38614539832192
H           0.36868156151258    0.63678489788667   -2.15494702138336
O           1.41598634699404    0.61944138524395   -2.03562409508367
H           1.69373608612671   -0.34906289724666   -1.96966051003386
H           1.51813795647940    0.99775785199598   -1.02498319771634
O           2.13881372777343   -1.79569195608547   -1.43279666159427
H           3.07252412603797   -1.95356609372785   -1.28105398103201
H           1.69765080697376   -1.84651292808506   -0.56481811712884
O           0.82826287097930   -1.30861879496861    0.89012775614384
H           0.57526154424996   -1.25503222663551    1.82685805263462
H          -0.04349309858590   -1.23538979857040    0.43659127376011
O           1.36750173791117    1.25034310544622    0.35799715703878
H           1.33151837484185    0.33568937053060    0.72548606379187
H           0.42646167636135    1.55769690916693    0.38868783675202
N          -0.88811429159539   -0.19437273361702    2.72396971597092
H          -0.69819194295000    0.80063756511614    2.76894458354577
H          -1.47389392435097   -0.42300193414457    3.51849170047656
H          -1.44722048433949   -0.33270774632425    1.88483726973038
