    23
        -45.36607888  Gyration_radius:  2.38930537056 Dipole_moment: 2.135
 S          -0.66866708054136    0.22806566829857   -0.72830977940529
O          -0.00444893792867   -1.01538050478216   -1.04791181500026
O          -0.21501786247509    1.35390020323289   -1.49307895240520
O          -0.51039253925080    0.51226431378070    0.77136771839778
O          -2.17433823774234    0.07623505956745   -0.90288478606800
H          -2.49402195305829   -0.76608084522198   -0.40975111976158
H           0.46497051517574    0.86842748761291    0.98361467141945
O           1.80715201093912    1.36616691498445    1.08257462841839
H           2.25857570655337    0.86664999184779    0.36191138351057
H           1.69526034024259    2.27342581670375    0.72306490258932
O          -2.82477950661517   -2.07781789606204    0.26025148207374
H          -2.85597399816753   -2.74198121074608   -0.43244422965051
H          -1.99739265027343   -2.26940950011426    0.79898140035984
O           1.03033658843784    3.45759002482262   -0.38324559204647
H           0.56147776401395    2.78850020277675   -0.91886364952891
H           0.37358010038458    4.10771946270063   -0.12932866636734
O           2.43031708814141    0.10612692234673   -1.17475610754190
H           2.31179890880582    0.77825043507173   -1.85094315448120
H           1.63946465294678   -0.45940714684143   -1.22816554038721
N          -0.47048832775149   -2.41250246945312    1.39003917985900
H          -0.02199224894070   -2.08221029749759    0.53767280651317
H          -0.00563904719559   -3.25830191222005    1.69467166017645
H          -0.32978127571228   -1.70023071081262    2.09553354936209
