    23
        -45.36519636  Gyration_radius:  2.28001004464 Dipole_moment: 4.974
 S          -0.90938506798216   -0.36112791611125    1.10607939911140
O          -1.89706210795353   -1.37385720989490    0.92609565175799
O          -1.01076326618901    0.77227211260936    0.21690880276227
O           0.51474197310125   -0.98327831814407    0.91548867110486
O          -0.85570543050132    0.11007713909437    2.54736918461232
H          -0.34916902058334    1.01944722502959    2.53257258645609
H           0.62447668377044   -1.26800518320524   -0.04499505511808
O           2.46361658491105    1.12311328276800    1.10146429335487
H           2.19944048969979    1.24475862479696    0.16304606903898
H           2.26456518679681    0.20367216958451    1.30525732952149
O           1.20893151105816    1.15107991922190   -1.27827214632377
H           0.33813715874510    1.12735828514291   -0.84253831360678
H           1.30724998239943    0.29410562184913   -1.70580377976253
O           0.64600564538787   -1.64955198037974   -1.56900869497816
H           0.78580353056070   -2.59318321913459   -1.67012107373160
H          -0.32215211288358   -1.46821464000946   -1.81516715691838
O           0.37442223217971    2.26361574307819    2.19926397214812
H           1.26765935911182    1.94867578335855    1.88410569706984
H          -0.09615046233950    2.55018363565673    1.40908868180389
N          -1.88314506808159   -1.11352275253778   -1.90193881703154
H          -2.54023214090013   -1.56005982193061   -2.52994019248214
H          -1.97795458598858   -0.11040488884083   -2.00657886154739
H          -2.15333108422644   -1.32715361196948   -0.94237624703623
