    23
        -45.36220155  Gyration_radius:  2.33860172073 Dipole_moment: 5.445
 S           0.56617773227695    1.35452477053841    1.10430486125474
O           1.69269478698710    2.06486898603135    0.56437851517189
O           0.67874907971779   -0.09541537310152    1.09210326969015
O          -0.71048789345660    1.78675086258902    0.53290273991700
O           0.49551193519020    1.74344983672073    2.64862598216783
H           0.84412603708234    2.62907545117354    2.64399613270936
H          -1.66712963700997    0.87212041999865   -0.01998149489396
O          -0.73664800908974   -0.37421890544477   -2.42773179585591
H          -0.99702300730298    0.05855702650367   -3.24284565977167
H           0.12670929210750    0.06205941558168   -2.15876977055363
O          -2.23597971968423    0.09798039463637   -0.43878068684131
H          -2.07584709712899   -0.70152735264501    0.25798864768900
H          -1.70012027025868   -0.13716648548160   -1.28493896830961
O           2.46827417288579   -1.40163749632304   -0.43532412797933
H           1.97962636458983   -2.18650697016190   -0.68932991864225
H           1.92769513783197   -0.94913877145420    0.24073161051771
O           1.49697874674186    0.76598850405785   -1.76451887409643
H           1.55942254680428    1.38368681805783   -1.01366444259857
H           2.06855291911318    0.01819839664134   -1.50565448551582
N          -1.58885645670000   -1.62747071286476    1.28902962041316
H          -0.66790763357762   -1.18083588654659    1.39149966766120
H          -1.45795869334827   -2.59799376946115    1.03662953560293
H          -2.06656034376602   -1.58534917904929    2.17934965226424
