    23
        -45.36378502  Gyration_radius:  2.31726620914 Dipole_moment: 1.868
 S          -0.27279575368710    1.15496948237124   -1.14970843680654
O          -1.47659934783210    1.73804450308406   -1.64331796767344
O          -0.13826139673787   -0.26231934210759   -1.42443986562949
O          -0.19778914819742    1.35241592599932    0.39269752038645
O           0.95294100411023    1.89084285959022   -1.65579135564139
H           1.79852819645358    1.52791878607135   -1.16488047121110
H          -1.15887218334545    1.33326409829919    0.70927519884931
O          -2.09098473198217   -1.41253907827795   -0.03850594614452
H          -2.60752404103649   -1.99153559096674   -0.60217565601807
H          -1.34939897741754   -1.08350434836301   -0.58910100280904
O          -2.70572558592701    1.10573795031647    0.72190408859537
H          -2.71396385619180    0.13749160638849    0.57909305921502
H          -2.82968318613545    1.50769013388302   -0.14934105932916
O           2.96008927717417    0.91182786413046   -0.51207078698560
H           3.68168624614250    0.85270065281420   -1.14268091566023
H           2.66447510319572   -0.03930958515718   -0.32678748524370
O           1.98171554833993   -1.44851298916709   -0.22839677007584
H           1.55787604597570   -1.50978074452860    0.65998167821901
H           1.24035881759830   -1.24409006358934   -0.82208275622592
N           0.38362328845899   -1.22956670988198    1.94759591168224
H           0.36737900092368   -0.21577348535271    1.93156174600455
H           0.46650659969827   -1.52926977601789    2.91069009980383
H          -0.51358091962081   -1.54670213954113    1.59648116269469
