    23
        -45.34966253  Gyration_radius:  2.31808786207 Dipole_moment: 3.422
 S           0.15275275158577   -0.10496738335405   -1.26940909267198
O          -0.16326073080664    1.03417407542002   -2.08397208014382
O           0.07348271533332   -1.36894550568547   -1.92698257996212
O          -0.82918666591226   -0.10236319430403   -0.03455997408217
O           1.50086107700101    0.12360646517626   -0.60403097583000
H           1.54606618543523   -0.16656206938635    0.39312390007218
H          -1.70156127623753   -0.27924106875710   -0.45103966854617
O          -2.54368714219560   -0.56006358434308   -1.94414175712981
H          -2.35595053435801    0.22041458901735   -2.47550843059775
H          -1.94893393443523   -1.24935883241657   -2.26902557770033
O           1.59426051389451   -0.34825774368557    1.85434292362641
H           2.45669707531672   -0.09335358913537    2.19137153162269
H           0.95472945080761    0.38498733510092    2.10258528907955
O           0.31879020477410    2.86526443177298   -0.18813402862527
H           0.08536768684250    2.28242208940273   -0.93393739473447
H           1.17031031010634    3.24807685168927   -0.40734334972816
O          -0.06114889097724    1.62414781516771    2.18070942709206
H          -0.92598942032196    1.22662765157290    2.05505323098145
H           0.09185902523934    2.16509185151144    1.37609529442384
N           0.23260863232676   -2.99029729012072    0.64746603881134
H           0.33484088591440   -2.70200453586673   -0.31926566632332
H           0.76054363433822   -2.33890256644345    1.21599589733894
H          -0.74345156364892   -2.87049578233924    0.89060705302047
