    23
        -45.36462791  Gyration_radius:  2.41659657639 Dipole_moment: 3.606
 S          -0.11063750717107   -1.09422450077205   -0.08809969319679
O           1.12793776272708   -0.72220088220094   -0.71970150643924
O          -1.29251656131202   -0.74400053693099   -0.84188872188028
O          -0.21197504887566   -0.49086334264143    1.30396667689496
O          -0.10588424633173   -2.60935250837984    0.17251193352407
H          -1.03348609466988   -2.78113476784816    0.55768890750503
H           0.31690907266936    0.46515325076664    1.44112846565336
O           1.00623557445623    1.63712713292787    1.52297792457508
H           0.69062831317406    2.18850210160598    0.76258331477478
H           1.92077594274114    1.35526535414823    1.27842335908363
O           0.18896180241200    2.91281865978525   -0.64528086805113
H          -0.63175574731167    3.40617738975477   -0.61326501827011
H           0.09033210026152    2.26425197803148   -1.38410065089825
O           3.17289743080839    0.61775565194330    0.38252755998626
H           2.55415201893000   -0.00963426059708   -0.03891669157345
H           3.53796483658996    1.15321452470637   -0.32495858902615
O          -0.14520103380424    1.02453868608376   -2.49010188845587
H           0.68734995701013    0.54236245581373   -2.49510349999360
H          -0.75568206679795    0.42836755804677   -2.01805103807825
N          -2.52691845418312   -2.50752043167046    1.01816821827170
H          -3.28449957665053   -3.17250611957257    0.93394168718663
H          -2.65291544801274   -1.76107632729851    0.34046769182708
H          -2.54267304667155   -2.10302107567200    1.94508240665913
