    23
        -45.37910997  Gyration_radius:  2.28540024704 Dipole_moment: 4.299
 S          -0.73194696972437   -1.78365364915923    0.16704741671888
O          -1.09998163577056   -0.89178975900998    1.25846663973038
O           0.69487399833459   -1.70616020824441   -0.13549657233696
O          -1.56692481367831   -1.61138366237616   -0.99944794309913
O          -0.96949156029847   -3.26308973532203    0.68356412442351
H          -1.90972450317733   -3.37023925653467    0.58052175262725
H          -1.63525813992048   -0.10497295099254   -1.82686261703522
O          -1.39556266305432    1.67617427729250    0.46580188191250
H          -1.44442001770927    0.77794632595342    0.84260494715049
H          -0.50046667553242    1.98770136750638    0.65668511481836
O          -1.39082957321067    0.82036130185942   -2.04291201486552
H          -1.60379412172109    1.31816295680731   -1.21918317482346
H           0.09099025119656    0.70034930579490   -1.86878823550640
O           1.31682385238411   -0.32466064806735    2.11374088849761
H           1.66760902855092   -0.99317013973970    1.51189130410062
H           0.35070757090327   -0.47985464417675    2.05491872231071
O           1.44383158480610    1.91860760366811    0.77475503779315
H           1.97325567383248    2.57188660716387    1.23295583860110
H           1.43490913649095    1.10412517820433    1.35429471675748
N           1.10422750417822    0.48122478209906   -1.51353457834139
H           1.78043416460288    0.45801928234553   -2.26836680761045
H           1.02714854010572   -0.46065009697218   -1.03388182250761
H           1.36358934841174    1.17506576189991   -0.78877461931654
