    23
        -45.37910958  Gyration_radius:  2.2854923522 Dipole_moment: 4.308
 S          -1.58616419931501   -1.10835431515237    0.02675845645246
O          -1.65296250719927    0.11966236368431    0.81502498578467
O          -0.35162334580072   -1.84038542815323    0.27519422513437
O          -1.83206574387317   -0.89032018917697   -1.38028991398438
O          -2.77273903654425   -2.01302430579355    0.56121635448261
H          -2.90129891636281   -2.62883501615313   -0.15302134881694
H          -0.72517839072253    0.00713119140209   -2.34360473444507
O           0.43500677714192   -0.53723625983319    2.41467857679288
H           0.29154859961073   -1.22545182463080    1.73166504754585
H          -0.41365757975441   -0.07672386948985    2.42062208031128
O           0.05386454551657    0.57049431886141   -2.53950462125861
H          -0.02502363261400    1.47314435104035   -1.34770926696624
H           0.82069243205320    0.01613062536097   -2.26339463101715
O           2.03867963824260    1.03250450700170    1.07110940614358
H           1.48949201301013    0.42766520302828    1.64726292418071
H           2.79904895117988    1.28856976457258    1.59387933003300
O           1.76155838096813   -0.83991858702890   -1.08274291510895
H           1.06180652141122   -1.36266744447965   -0.64888701135895
H           2.10298262532473   -0.24794551579946   -0.39895075620002
N          -0.12155038706554    1.89880191354449   -0.34268152397340
H          -0.82435733499204    1.27726206731615    0.15017709950186
H          -0.43004521433491    2.86422496329519   -0.36122324599532
H           0.78198582411958    1.79527148658355    0.15442147276181
