    23
        -45.35462394  Gyration_radius:  2.38603264012 Dipole_moment: 4.132
 S           1.93377917217821    0.80009461549556   -0.22696469155800
O           0.90878520514236    1.17706238226466   -1.19761320815660
O           2.12031464713697   -0.60858347550776   -0.08811367712275
O           1.69372882656652    1.50567516498376    1.04951332972891
O           3.29074369828128    1.41716821575282   -0.76075948678968
H           3.13366658567969    2.35397303925095   -0.69686965366150
H           0.48877982063499    1.27779657427297    1.63742854004414
O          -0.92033191891148   -1.37252306623694    2.13981589554622
H          -1.30792724454491   -1.50958038137631    1.21659471801745
H          -1.57975231030476   -1.67908561734866    2.76449295270075
O          -0.54273952691218    1.10307897629598    1.95541189527842
H          -1.06314315761855    1.27622308827141    1.10847441184256
H          -0.63911042052208    0.07500414944578    2.12738741291949
O          -1.51572109517867    1.36926200140556   -0.41803211897511
H          -0.59231902994870    1.25688556096159   -0.79744687540458
H          -1.85126767737349    2.19264023421646   -0.77614395193559
O          -1.95281294147326   -1.42919941314982   -0.21908754286401
H          -2.08274261745157   -0.48913468510766   -0.39685950481693
H          -1.20394682581099   -1.69120271503998   -0.82547007436933
N           0.16863133753552   -1.77995522735495   -1.77529736348580
H           0.45946420567565   -2.67070333365377   -2.15863056149216
H           0.89732498438694   -1.46904469307712   -1.13042976648277
H           0.15659629279704   -1.10585138479787   -2.53140067896720
