    23
        -45.37605352  Gyration_radius:  2.36730778518 Dipole_moment: 6.089
 S          -0.98758182434382    0.69171623404065    0.66279243934755
O          -1.42574626169795    0.52082283822643   -0.70252686962713
O           0.19813109739533    1.52341358167546    0.77020400947914
O          -0.74315968732423   -0.62334097450662    1.30262225158191
O          -2.14647453575638    1.36890283247594    1.45617619552447
H          -1.86050288137796    1.29296209258279    2.38748355759555
H           0.19863763811904   -1.36216017302755    0.31692722756091
O           2.29491818806537    0.61467056965477   -0.39899909372865
H           3.07342868148989    0.94771882986578    0.04975278543533
H           1.51399485158129    1.03161854056463    0.06606201298889
O          -1.11756622129566    0.39260475003633    3.69856018998822
H          -1.73324482564667   -0.15043959695595    4.19599260747192
H          -0.81570175256410   -0.14901038789360    2.94172858659767
O           0.50070276303165    1.11725593415000   -2.58704840809970
H          -0.22267106665264    1.21509753940313   -1.94506412355722
H           1.31120236939861    1.14195013161784   -2.06537625308079
O          -0.61291918517078   -1.30745442062977   -2.56830741984157
H          -1.32756247912853   -0.89099775712178   -2.06039370898247
H          -0.13941919178130   -0.53035249195714   -2.93741728211853
N           0.86973899731390   -1.67086901251545   -0.45152110830294
H           1.25477848349918   -2.59082771489041   -0.26673177557103
H           1.61136938517132   -0.93999389961232   -0.49279469294350
H           0.30564747783476   -1.64328745559202   -1.37212111809527
