    23
        -45.36385605  Gyration_radius:  2.3409987366 Dipole_moment: 3.340
 S          -0.32649004757085    1.63422651945390    0.06791320778552
O           0.95610650872425    0.93613959433600   -0.15181584001726
O          -0.38876002023212    2.31096849267824    1.32396374390569
O          -1.42964542973616    0.70151504501900   -0.16717579192043
O          -0.42677629437310    2.71469758315720   -1.07768022311342
H          -0.44391170371086    2.19660149672806   -1.88748565216031
H          -1.29647508232608   -0.75212154633856   -0.11283175549096
O           0.13603977718464   -1.99693232927305   -2.38632774071935
H           1.01800691161753   -2.36790497877636   -2.31606333262325
H           0.24218369949074   -1.05189153189881   -2.62923231872809
O          -0.99499267075854   -1.74714809749209   -0.06800674022131
H          -0.64384358315228   -1.95193618167115   -0.99217029271380
H          -0.10659248435010   -1.65896139387791    0.59301533916297
O           0.97309910464029   -1.23941094009318    1.32183635691332
H           0.54297966494325   -0.85338850307193    2.14916038795340
H           1.20035650831556   -0.43582512316817    0.79971873599654
O           0.66011493952040    0.63061316389396   -2.66468894209159
H           0.86689540522483    0.71775409254659   -1.69471974636608
H           1.42893779695170    0.95574376399993   -3.13730915733514
N          -0.34317570291886    0.11334774952158    3.13315627380068
H          -1.29850208027068   -0.18168615159444    3.29376025434666
H          -0.38255892849822    0.96820281700378    2.57229352648698
H           0.05700373129709    0.35739643887828    4.03068969716290
