    23
        -45.36355176  Gyration_radius:  2.40864924666 Dipole_moment: 5.182
 S          -0.98295094423508   -0.51156750160403   -0.39480087325673
O          -1.26554918715323   -0.21741826800534   -1.76468766574626
O          -1.06196536928106    0.63451058495006    0.49034468693214
O           0.41040652803070   -1.13990062689190   -0.24835037767222
O          -1.92240749831094   -1.60656308174232    0.09488745735857
H          -1.73317085472661   -1.82868042831322    1.07448804874409
H           1.12719894082088   -0.53794973162278   -0.72691815894443
O           0.58619144730761    0.19814341528830   -3.66448763718797
H          -0.17265000545904   -0.05605799150992   -3.10493328614569
H           0.34673152522601    1.03795639929414   -4.06181979685161
O           1.97562931639388    0.41956378276662   -1.41428098121266
H           1.60576838602782    1.28716824439210   -1.15469779095674
H           1.67978368561792    0.29090168420931   -2.34692078728311
O          -1.46488068196010   -2.00532091269902    2.56395349410115
H          -0.63679025798971   -1.45554670409612    2.69767536006159
H          -2.17075166365120   -1.55880266030083    3.03704662564655
O           0.43842704279692    2.49869097606276   -0.67769211176414
H          -0.22596509548813    1.90373571998975   -0.27617723191050
H           0.47293075891971    3.28409620653802   -0.12896891010596
N           0.58165262770880   -0.34304604291448    2.60752380309918
H           0.96309534391777    0.23461166178018    3.34560375756881
H           0.09882680785241    0.25286110716727    1.93736068688693
H           1.35043916773199   -0.78138584274273    2.11585168863441
