    23
        -45.36083071  Gyration_radius:  2.38187649052 Dipole_moment: 4.210
 S           1.55263503905414    0.69754815283407   -0.05537747756141
O           2.01536534913456    1.32879658252249   -1.24105862561819
O           1.24073249549887   -0.71632965264618   -0.15372279312299
O           0.26783517874990    1.40696515103483    0.45816913283024
O           2.55349498914662    0.91855201584673    1.08243240057673
H           2.32469844210722    0.23361472574252    1.79898593447802
H          -0.50044748369143    0.74040413959740    0.40572525567449
O          -1.43501603376795   -0.46999754939626    0.27913615487032
H          -0.69628740106014   -1.06158347710837    0.07751751625622
H          -1.88035697287538   -0.29233104836159   -0.61727088195227
O           0.51555930511667   -0.34461939118564   -2.80227119884393
H           0.80120269987503   -0.88001578536679   -2.05196885480769
H           1.06350767280957    0.44764234657117   -2.73324411776530
O           1.68173731396961   -0.94196091922547    2.57158747856612
H           1.53181516095616   -1.49302291150969    1.79402035596121
H           0.79423247066557   -0.64646109000361    2.87748019402926
O          -0.79364778241273    0.04389249917407    2.94268597349597
H          -1.29535364750049   -0.24905322364787    2.16778835733070
H          -0.71840090155453    0.99833670905431    2.86971918381871
N          -2.24782175919178    0.02007445316790   -2.14965306298546
H          -1.32531948499640   -0.08683588571406   -2.58122661119576
H          -2.56610650370381    0.96377394278634   -2.32840148559891
H          -2.88405814623747   -0.61738978435461   -2.61105281868444
