    23
        -45.37659505  Gyration_radius:  2.38148744913 Dipole_moment: 5.590
 S           0.28671410110498    0.72083175309218    1.27185222907158
O           0.82850635651287    0.68067950800146    2.59960890644021
O           1.04978122248336   -0.10213293592735    0.31878960427100
O           0.42288747900489    2.20005392574862    0.70163187989969
O          -1.13523822663194    0.41674899906732    1.18349389399274
H          -1.66832790862927    0.18054407274011   -0.23012944315330
H           1.35943837634776    2.40811171009812    0.89818187340639
O           0.47787337301678    1.05221349862098   -1.96096811663024
H           0.83409218120124    0.55461722281935   -1.18581816490899
H           0.53235631236411    1.97624116398980   -1.70233293971942
O          -1.49463694679134   -2.64034108364578   -1.34834156905372
H          -1.07610548419454   -2.66690208164081   -0.44983445780802
H          -0.83334214873954   -2.98259711610495   -1.95262474265678
O          -0.24375349131035   -2.33954191196928    0.95976329352467
H          -0.80955860529387   -1.95669252990366    1.63509472813525
H           0.37127780915933   -1.62046532380954    0.71261977526741
O           2.92347169994203    1.84044306917512    1.46831063308714
H           2.40377489626170    1.41688449971036    2.17691504550302
H           3.21369747372060    1.11865085093775    0.90365555775487
N          -1.85117670029889   -0.00956721122077   -1.26909616111364
H          -1.04180622131855    0.44414880150163   -1.76647883907545
H          -2.74727632069141    0.36515944090259   -1.55940093259949
H          -1.80264922714210   -1.05708833219772   -1.40489204363442
