    23
        -45.37659507  Gyration_radius:  2.38144138619 Dipole_moment: 5.591
 S           1.19800971932574   -0.14934884034894    0.87325707909346
O           0.92977868509025   -0.14170729692162   -0.57446649997983
O           2.53184657833509    0.26997110888451    1.19403843094344
O           1.01984269776427   -1.67394732452909    1.29237436517958
O           0.14625870174914    0.55936105460800    1.59013952228453
H          -1.27238319944964    0.32938528113217    1.06725770176811
H           1.81454897157311   -2.08786347874790    0.89726970218658
O          -1.00991053532461   -1.88984814091647   -0.76768770243030
H          -0.69092954164306   -2.56484921603050   -0.16244294402806
H          -0.25199712544499   -1.26414308886231   -0.86529069577327
O          -2.25926569685839    2.13356021436860   -1.17086095241005
H          -2.29160657208281    1.92853377549709   -2.10706424044672
H          -1.32180853131832    2.39885417655662   -0.98673397600867
O           3.22683230297496   -1.91171107626037   -0.13718319524886
H           3.35517346180916   -1.07266284432125    0.34355032752502
H           2.93399324366168   -1.65556069654567   -1.01620180096277
O           0.30435686677462    2.44665804518277   -0.61154194625509
H           0.45669380560906    2.61564263082350    0.32175900312333
H           0.60924517383698    1.52812233049565   -0.75169581766379
N          -2.17599208712134    0.10144702834046    0.53768906172658
H          -2.34864861475506    0.89768920493790   -0.13623400711891
H          -2.95389018918237   -0.02556366395667    1.17524747922237
H          -1.95014809534031   -0.77201917337055   -0.00517888470579
