    23
        -45.36732243  Gyration_radius:  2.45389160008 Dipole_moment: 5.787
 S           0.61202371076569    1.16213733919698    0.45926993716945
O           0.35787149569376    2.14224818742575   -0.55991049328256
O           1.68886901738630    0.23743616620085    0.12156856644719
O          -0.68518332799192    0.25582832373423    0.62228245593427
O           0.77414868879685    1.73413321108129    1.80099399071885
H           0.43922204918094    0.69217621132833    2.66158152666295
H          -0.58578779789538   -0.45498171095596   -0.07132041082593
O          -1.08789686567104   -0.62995335742478   -3.36104997884215
H          -1.15399531965519    0.32591283328299   -3.12366512167456
H          -1.98729562554270   -0.92640741984482   -3.50831980691509
O           1.31473736337540   -1.89376065709980    1.55155352576365
H           0.76529203818268   -2.38269365120021    0.93020572605357
H           1.64661012725709   -1.12043730837941    1.02529254619996
O           0.03689337049527   -1.49666664835856   -1.11711010096869
H           0.88819703282167   -1.03333819101331   -1.08253364236904
H          -0.35293805946475   -1.27966138705377   -1.99771854498549
O          -1.29427492020882    1.90791273929872   -2.58847305412749
H          -0.96909690016261    2.57554046880623   -3.19533829759516
H          -0.73360682445001    1.99811195926127   -1.78427369658708
N           0.14058588977087   -0.24212032289566    3.21735573720881
H           0.47914066856880   -0.23414930978087    4.17392803898948
H           0.57872396380268   -1.03009380174057    2.64455540201445
H          -0.87223975504969   -0.30717367389471    3.18112570502152
