    23
        -45.36669917  Gyration_radius:  2.29167051287 Dipole_moment: 4.995
 S          -1.13424609348700    0.20556694656518   -0.99986787518592
O          -1.01790734168438    0.63216805676537    0.38342263539057
O          -2.05139904461323   -0.86176141836770   -1.22188954414793
O           0.27849904085699   -0.16728928406333   -1.49669953623151
O          -1.48721716645134    1.41084152973310   -1.86707454376477
H          -0.99559153499654    2.20243902179336   -1.45182745317761
H           0.69796795966170   -0.94343197448667   -0.90764011344713
O           1.21448211606224    0.30468025076641    1.71290955974089
H           1.10248141582609    0.49816136118977    2.64463024752849
H           0.33445002882548    0.43592368164368    1.28620371633088
O           1.20726176718630   -1.87381051866450    0.05879290392937
H           0.36879708382889   -2.34072872892783    0.35095487525710
H           1.45699483348196   -1.28031106311571    0.78725677521692
O          -0.20417389406818    3.14713339355598   -0.53968541225210
H          -0.56630879770473    2.85946391097195    0.30478093083891
H           0.72630649650732    2.80762980948161   -0.56495568422634
O           2.06664197587794    1.77797607783414   -0.50374763310142
H           2.04223854820852    1.31897742163662    0.35057284141759
H           1.80862451023061    1.11862076268153   -1.15952684587554
N          -1.18741422543684   -2.77811175728159    0.70319979790190
H          -1.65914675466420   -2.18133556291528    0.02240484786576
H          -1.56714131188420   -2.55550849590935    1.61489247784258
H          -1.43419960171216   -3.73729342060094    0.49289304204286
