    23
        -45.35962787  Gyration_radius:  2.40214641191 Dipole_moment: 2.603
 S          -0.50302312884594    0.78681551067529    0.71203519434184
O          -1.44985916612397    1.85951115420146    0.63231647655731
O           0.80130131059637    1.14817992333752    1.19037580353882
O          -0.33785616034232    0.14532534139524   -0.70138248701330
O          -1.04413350228494   -0.36552672558396    1.55031132989969
H          -1.56534180000865   -1.06450647318129    0.99051308421492
H           0.32891150458596    0.75525614365607   -1.16611900468340
O           1.33734533651202    1.89725948576233   -1.43754365031113
H           0.74223483332607    2.68037503050191   -1.48730001599055
H           1.71365699256150    1.92299975765864   -0.54854171482369
O           0.18856920027013   -2.66465024438274   -0.86439852060585
H           0.79077958098192   -2.34556884259957   -0.14039775412434
H           0.19303296556406   -1.96078323702715   -1.51832442236455
O          -0.59824377947984    3.68955468266685   -1.11506896307464
H          -0.97298872374033    3.15236331174212   -0.38774341390684
H          -1.32235459999981    3.86318945814576   -1.71949416533874
O          -2.12040808767170   -2.21083538339273    0.23552504335165
H          -2.30982223647513   -2.92774111667879    0.84551767359739
H          -1.28635898685725   -2.47055904349296   -0.26122691206130
N           1.71679032443031   -1.60249877670070    1.09067561595496
H           1.45191103747267   -0.62235610621900    1.16574967885513
H           2.71859509689547   -1.63897574428149    0.94397354727310
H           1.52726198869057   -2.02682809617848    1.99054758672474
