    23
        -45.37949582  Gyration_radius:  2.38826502638 Dipole_moment: 4.344
 S          -0.63894300332245   -0.41073163774249   -0.55481202127117
O          -1.73143883855198    0.37521352078881   -0.02174628615666
O          -0.25495086002327   -1.48283181237796    0.36368049821323
O           0.53052750128257    0.43674348130289   -0.85893227997522
O          -1.10337204840089   -1.04715880353051   -1.88585989170404
H          -0.24927112157807   -1.28108890453495   -2.35907382148448
H           0.73147555406194    1.33699307127733    0.35743164511924
O          -1.68872943002389    2.95425498005665    0.47924748962940
H          -1.84718082362692    3.42062849584603   -0.34304787615265
H          -1.86232172031867    2.00239601857270    0.28430499308671
O           1.66906917027486   -3.02050420448381   -0.59831058581289
H           0.99380812098906   -2.47117807291045   -0.14234445783713
H           1.33678702598036   -3.91949164157855   -0.57533699404346
O           1.30345010420283   -1.39988897448915   -2.70106914667165
H           1.45867385561207   -0.56617860572580   -2.23397531201088
H           1.60635307143541   -2.09774450268469   -2.08083245429993
O          -0.52992612815835   -0.10562386536896    2.57924387899733
H          -1.47055764731873    0.09015584707852    2.54388552589585
H          -0.38938147683263   -0.75467995377772    1.85053038937632
N           0.60630615598776    1.88468064076866    1.27128741480113
H           1.45906020949497    2.33529590377622    1.58370167458166
H           0.24368297233285    1.16270169483547    1.96124030338692
H          -0.17312064349828    2.55803731492043    1.08078730433657
