    23
        -45.35341374  Gyration_radius:  2.43397284145 Dipole_moment: 4.551
 S          -0.15924461562928   -0.11259070933981   -2.40922806599656
O          -0.83902787975166   -1.34213508031199   -2.20513842514088
O           1.01806031701216    0.12713923394690   -1.61634360286506
O          -1.10289037241426    1.08394732138897   -2.26057198208118
O           0.25628256350986   -0.03357081895955   -3.92064150391627
H           0.90890339533921    0.65912913517682   -3.99923284038105
H          -0.88289783048147    1.52043659390889   -1.33519856729699
O          -1.70162121479656    0.19386616182660    1.50750142825331
H          -2.65817301570891    0.20353673220016    1.45525954692357
H          -1.41451763720171   -0.70158087099590    1.15150465657055
O          -0.38132739439346    1.87003277150369   -0.01457443112479
H           0.48483525274813    1.44662246153823   -0.07854386743678
H          -0.91046974072982    1.30995903976204    0.61784072197466
O          -0.88903262989417   -2.03404269854981    0.46092437133272
H          -1.00095218552615   -1.98378314452054   -0.49991368792146
H           0.08543723941582   -2.00636876231090    0.60474951289939
O           1.70176169604959   -1.39963870521463    0.61469278030391
H           1.67453869409493   -0.92868560696348   -0.22888342629228
H           1.63979085390205   -0.71281810084703    1.31010170153496
N           1.15251476584751    0.57019969143251    2.50038208516283
H           0.14267707091876    0.47000820138051    2.52660375959146
H           1.36211016425802    1.55859279683654    2.43118222384417
H           1.51324248342994    0.24174436711528    3.38752762206504
