    23
        -45.37772318  Gyration_radius:  2.31621855058 Dipole_moment: 2.187
 S          -1.80216472227774    0.39740456024553   -0.67854642076029
O          -1.05902661663533   -0.79751096651493   -1.04661802683898
O          -1.44522586140467    1.54522610862513   -1.50380377808466
O          -1.72043794559958    0.69547798515476    0.73527611771049
O          -3.32155355259807    0.06556259313551   -0.98927267155748
H          -3.77495249145792    0.81694671496224   -0.62006999779044
H          -0.26692196394676    1.14513298947536    1.47951282570429
O          -0.66761831890111   -2.41603091134726    0.97972788120298
H          -0.94337525482497   -1.77574803641115    0.28437876249486
H          -0.70178189658418   -3.28010806501307    0.56455924858997
O           1.66117591943113   -1.24859179838810    1.43824125519084
H           0.78663902669602   -1.70490627895347    1.35080100788816
H           2.11485216581656   -1.66784362294730    2.17050420185287
O           1.62138110260044   -0.70496796682466   -1.30579246493540
H           0.66186296209013   -0.87779775795542   -1.38175899771284
H           1.85562841765917   -0.98737086631784   -0.40741428405111
O           0.68668893153215    1.32889308029650    1.63105031843364
H           1.02018404037098    1.80057405386307    0.17391896641981
H           1.09987622572064    0.44880584252380    1.70238747688517
N           1.06793537587346    1.83598680096635   -0.89665396354445
H           1.59487797586383    2.62834636044656   -1.24535834156370
H           0.06054961484398    1.84736153709542   -1.23256929081290
H           1.47140686573292    0.90515764388471   -1.20249983472161
