    23
        -45.37772320  Gyration_radius:  2.31619984581 Dipole_moment: 2.190
 S          -0.64980619760108    1.81200104345413   -0.40060911569685
O           0.72862397806522    1.39773191247153   -0.61014926609456
O          -0.89697840674413    2.23236190378626    0.97349700124243
O          -1.60674080676421    0.82335006337148   -0.84941148670645
O          -0.85239682412484    3.09251813186549   -1.31409702838795
H          -1.78825749206200    3.25061638422885   -1.23998968386669
H          -1.75565796351145   -0.69159647040468   -0.10625112171273
O           0.96639212723619   -0.43260657664725   -2.47409157314597
H           0.76469060184238    0.30696347293700   -1.85627109903264
H           1.81295776523323   -0.21608098809954   -2.86985647998884
O          -1.58770551113999   -1.46829438539773    0.47216879066147
H          -0.81374207000733   -1.90907331658949    0.07592326842996
H          -1.00357280587259   -0.67206432009874    1.68955559959123
O           1.88590778100830   -0.36425559300911    1.06811318065127
H           1.69777833888283   -1.17391539460249    0.56734198028069
H           1.66618617175928    0.36655294745815    0.45657244789393
O           0.80387347554726   -2.31379527496505   -0.62171219047769
H           0.83157730747425   -1.66678703041794   -1.37089409847569
H           0.89819812302053   -3.18431161054809   -1.01034845907170
N          -0.42604004729181    0.02377902240056    2.26558759725618
H          -0.65846633806667    0.98515312537105    1.87888793390157
H           0.58724609996426   -0.15851994176658    2.01478885291205
H          -0.60406732684630   -0.03972710479688    3.26124493983594
