    23
        -45.35580643  Gyration_radius:  2.42977368593 Dipole_moment: 2.569
 S           1.56015572995517    0.47354351803688   -1.41892182356265
O           1.23321640017963    0.97378830598178   -0.10960278033152
O           0.74333518954673    0.94686533270397   -2.48657872451382
O           1.66658458867967   -1.03866760905354   -1.39127850362747
O           3.04693471221516    0.88941760270405   -1.73104094615098
H           3.55239521916132    0.61548532042177   -0.96926800250985
H           0.83043811202288   -1.51284429043643   -0.88496760323338
O          -0.17769999995600    0.42340055837263    2.15902530776440
H           0.40364855819392    0.74584799275466    1.45065403259050
H          -1.02494793688360    0.25809429267933    1.72262132705204
O          -2.12698208294851   -0.23976536014842    0.24279927270561
H          -1.90340186395534    0.60942047483841   -0.25130546634717
H          -3.00093180181853   -0.50485200976585   -0.04711156264041
O          -0.20896350001368   -2.07118002634311   -0.17632384736745
H           0.17624486679058   -2.20831535450684    0.72750894603874
H          -0.92200109181330   -1.39985591067540   -0.06167123085125
O           0.70092695347826   -2.07017215251030    2.30628387441429
H           0.22993087338662   -2.53003897214149    3.00260976380361
H           0.46773304461233   -1.11209077793147    2.39422371208872
N          -1.45103096359472    1.97804509174064   -1.00027523847903
H          -0.74063685208509    1.64953218763668   -1.65404404440152
H          -0.96475395957968    2.54568104423671   -0.31653670081489
H          -2.09019418558094    2.57866075141411   -1.50679977164247
