    23
        -45.36642808  Gyration_radius:  2.32299884048 Dipole_moment: 3.562
 S           0.17333967368301    0.25959505141311    1.32314084631819
O           0.46997968714343    1.06674644719532    0.15922086642744
O           1.15946421589667   -0.74164389290706    1.61061745133205
O          -1.20703093178836   -0.37756735320791    1.13401676489316
O          -0.03108392905814    1.16197950091942    2.53794316987075
H          -0.70944622050331    1.85587903562572    2.19173117997404
H          -1.22561155207550   -1.03468417437847    0.29169977616645
O          -0.40918276370341    0.27971057217879   -2.31869476066216
H           0.48742192538206    0.04206804733120   -2.61276115028578
H          -0.24310616828790    0.78378493900803   -1.50596679201808
O          -1.08927897626969   -1.81553535113097   -0.88927378910767
H          -0.22686360536120   -2.26519484447864   -0.79039598682274
H          -0.95219057184167   -1.10821585571693   -1.57656458572697
O           1.43652851537852   -2.59114884427341   -0.24795052426503
H           1.75188354597197   -3.42637497750683    0.10149689376298
H           1.42246850220787   -1.95931129117929    0.50457227308959
O           2.19295741658671   -0.29536554725351   -1.74567212792357
H           1.94070810744910    0.28499591821482   -1.01656740954352
H           2.15880200478837   -1.19304603161039   -1.39154501372282
N          -1.64756620326530    2.67187971837273    1.26103579413679
H          -1.07940682875414    2.60205279462728    0.42374673850331
H          -1.86701120639842    3.64239112914989    1.44314952859681
H          -2.50577463713589    2.15700500954427    1.11302083698118
