    23
        -45.34705908  Gyration_radius:  2.54189266861 Dipole_moment: 5.669
 S          -0.08576906710818    0.64526073760978    1.50406006989787
O           0.10033651493724    1.78913573176016    0.66140710411684
O           0.96999596364722   -0.31405415048232    1.49090639543519
O          -1.44239707899080   -0.02287147942755    1.13448733890425
O          -0.34663708888466    1.07963981657201    2.96055645206070
H          -1.19643658877408    1.58191780833748    2.94174852989555
H          -1.37978097145888   -0.37245762761568    0.16131459074130
O           0.76244488760412    0.82760534524355   -1.77628787633206
H           1.57274217688636    0.33131344740438   -1.54525036108359
H           0.60136901145768    1.41519772666115   -1.01785353912057
O          -2.79536364520201    1.88262657972736    2.56290233780112
H          -3.41725977092144    1.57152843979263    3.22606870198572
H          -2.76052149561546    1.21625522569998    1.86256146490993
O           2.75369838901046   -0.52688520520840   -0.52394107883249
H           3.58242856944850   -0.15471903112941   -0.21808844284367
H           2.16934104731575   -0.57851299813357    0.25497704967753
O          -1.23188158789398   -0.71107185570145   -1.26864415606778
H          -0.43166351951743   -0.16552877833920   -1.56843482147060
H          -1.97569942195818   -0.41022062325414   -1.79569673706357
N           1.18392047364861   -2.53525036426184   -2.35583292762455
H           0.32198751955136   -2.46944455454985   -1.82683793271617
H           1.11783790221247   -1.86873045441402   -3.11650607438001
H           1.92730778058503   -2.21073372629654   -1.74761605788832
