    23
        -45.35998987  Gyration_radius:  2.43101025769 Dipole_moment: 6.606
 S          -1.76534856531135    0.85042457085148    0.48911238166882
O          -1.52749228825688    0.66553379931533   -0.93228999338507
O          -0.84631008874577    1.77290196817748    1.11081782353399
O          -1.80231727038683   -0.44154826933847    1.18879565368994
O          -3.21497707498503    1.46114682022053    0.64011290548503
H          -3.76163465970631    0.80439811782427    0.22034961328269
H          -0.44452719195147   -0.90488636932031    1.39363381770147
O           0.87577748071497   -0.31143187199695   -1.00014548990263
H          -0.01757661881193    0.11421954733037   -1.07283206594621
H           0.83556491343149   -1.08438681969135   -1.61648481598823
O           0.59293032323320   -1.05835540713633    1.38392109563603
H           0.98000505944194   -0.26311047252348    1.96468457799342
H           0.83451590755001   -0.82223165326582    0.39241541389582
O           1.33078453041342    1.03455009936414    2.55713347059694
H           0.45465447367078    1.45305638400868    2.51975307942030
H           1.81139738279806    1.47728354060642    1.81956016737561
O           1.73628982721656    2.11492176643788    0.16330236755882
H           0.79327607222566    2.29656533297056    0.30512618390862
H           1.76254118356842    1.39613246359071   -0.47992899538068
N           0.43621342158295   -2.44048902073551   -2.60638523163143
H          -0.51469717833572   -2.25190178644005   -2.89931272912182
H           0.44310616808827   -3.32035947588643   -2.10609263590768
H           1.00782420256270   -2.54243326436426   -3.43524656449403
