    23
        -45.37205270  Gyration_radius:  2.35251598789 Dipole_moment: 5.892
 S           0.86606907138775    0.25618232511408   -0.52387704135345
O           0.20773713614497    1.05183141602665    0.50198011648244
O          -0.06999342809010   -0.37830242798599   -1.42254878133735
O           1.74469653159410   -0.75681770574446    0.10119592313882
O           1.78228271281356    1.19836473363311   -1.36341346049672
H           2.52206938525535    1.42710157149255   -0.76322753828473
H           0.72221387672524   -1.92148033627010    0.26948229852516
O          -2.70773838622271   -0.02434506328269   -0.88584700062624
H          -1.84168519115259   -0.17413756864343   -1.30669300798171
H          -2.74635468713552    0.94249168627923   -0.78225119127671
O          -1.62472959104239   -0.66963259880838    1.39373800698289
H          -0.95381711413569    0.04113961738286    1.31541211426388
H          -2.24633301315785   -0.47117070178765    0.63543075313506
O           3.64376932798584    1.03468978333843    0.50929939293089
H           3.04922515459715    0.26648057385152    0.61392165504049
H           4.49262203623110    0.68829521534686    0.22463673332343
O          -1.92891734233425    2.51436429307076   -0.22804508628337
H          -1.08563855502262    2.07073292799637   -0.01023355182633
H          -2.13944742355842    3.06805700823535    0.52560141449344
N          -0.19097724386089   -2.47071625592134    0.29690087436304
H          -0.52377405529120   -2.50373390850417   -0.66614181555203
H          -0.87966080571319   -1.79390016960349    0.86178547320751
H          -0.09161836601336   -3.39549441521294    0.70289369913333
