    23
        -45.35437561  Gyration_radius:  2.3354553321 Dipole_moment: 2.464
 S           0.67482049786876    2.03586373586260   -0.71176798421660
O          -0.52019054340140    2.70523081942376   -0.31652404291518
O           1.67984389261452    2.76355198399544   -1.39744403448832
O           0.23538331413593    0.79893715187194   -1.57863850781807
O           1.27932843855904    1.36259441717284    0.56091625278720
H           1.85547376706308    0.62526458090678    0.20752163010304
H           1.00405980689663    0.21181289869337   -1.65327238830093
O           0.64088723869960   -2.16189784920140    0.44551699445271
H           0.41445355990185   -1.67177239103646    1.26543224405987
H          -0.17688254505574   -2.07875639075563   -0.10815537172782
O          -2.10367210866904    0.89766858213983    0.84715930612333
H          -1.55191566071722    1.56421120567231    0.38765803949242
H          -2.78951639466197    1.39159816106039    1.30098661603858
O          -0.13286912583530   -0.37084642130819    2.31413170245859
H           0.50864670829847    0.33376756243884    2.17852347654787
H          -0.94719188035981   -0.04756110710454    1.88941066120218
O           2.29178368681962   -0.61545182354874   -0.67489554574382
H           3.18077987376709   -0.97137986354013   -0.62711740474072
H           1.66624373265111   -1.31873906240346   -0.23862873629347
N          -1.59103933585839   -1.50544609244085   -0.91304158370140
H          -1.95027147960349   -0.79807658648870   -0.27775927429174
H          -2.35168785451717   -2.13266558885763   -1.14256886408839
H          -1.31646759856753   -1.01790791252514   -1.75744317494813
