    23
        -45.36016917  Gyration_radius:  2.47026204414 Dipole_moment: 4.128
 S           0.73801809323299    0.84169815386670   -0.45401174716990
O           0.42043936288936    2.05955653768665    0.21862874597279
O          -0.41332396851634    0.04746905946972   -0.82953362950364
O           1.69431541781859   -0.02319311419658    0.37896195972663
O           1.57028236295725    1.15325843463839   -1.70204208171733
H           1.92218005859787    0.28965464492370   -2.08872727269124
H           1.27361516184751   -0.23112771504985    1.29373974599828
O           0.63308069369472   -0.39148902061522    2.63547690845503
H          -0.02978560720371    0.37136446261408    2.68806189166797
H           1.28433103231468   -0.22836525926212    3.32136264101592
O           0.11853155346434   -2.30256895888994   -1.90314118859332
H          -0.13658930865982   -1.49056543267655   -1.41306154792166
H          -0.64356248307561   -2.55032729421874   -2.42973439004819
O           2.30821057348943   -1.06789827725948   -2.75223398335077
H           1.60053618828918   -1.67913603971964   -2.44046136574598
H           2.23958188740449   -1.02240007661079   -3.70872038376591
O          -0.95024482325788    1.63537295464720    2.53512404201676
H          -1.75306361274541    1.25640532390299    2.10640634795487
H          -0.47847034604522    2.07127460126980    1.80657219863606
N          -2.75587500905215    0.44311943654821    0.90779749043099
H          -3.48205630911068    0.98626530445896    0.45840384507099
H          -3.14532818956918   -0.46045377851518    1.14528697964442
H          -2.01482272876938    0.29208607298227    0.22584480391627
