    23
        -45.38031823  Gyration_radius:  2.32439649944 Dipole_moment: 6.189
 S           0.59465313118066    0.19078532714386   -1.24014054273899
O          -0.08691451018664   -1.11257807806046   -1.27893405488194
O           1.46859552733578    0.28297850633291   -0.08186065080381
O          -0.37531637434243    1.27082317487040   -1.29813696059749
O           1.51195736291906    0.27077185713401   -2.50050739802356
H           0.86852925381710    0.22188289544214   -3.23534921179584
H          -1.26879279720454    1.47069744663111    0.15618217386962
O           0.87521523615633    1.77170876668454    2.10711654229289
H           1.18331370720340    1.13968353362105    2.76139874471070
H           1.21047744440745    1.44521755248750    1.25240742144087
O           1.37064694347582   -1.31582396387972    2.01395058069946
H           1.51921462135052   -0.72999869582409    1.23444864691442
H           1.98709260957020   -2.04299665728034    1.91695605700710
O          -1.56262280080517    1.33653093014291    1.08273721388115
H          -0.81467952353328    1.68405064543169    1.61480374376253
H          -1.43808410722735   -0.17270975784389    1.18900347237617
O          -0.85000874646839    0.04739785902324   -3.66026917779677
H          -0.93408372875365   -0.75466081144185   -3.12963866645507
H          -1.05659152060255    0.76988027937986   -3.04871865532244
N          -1.15379594503383   -1.21804291642450    1.08801903611272
H          -0.31846774017687   -1.39841046237402    1.68185000944891
H          -0.81219425857010   -1.30509391495823    0.08283924425511
H          -1.91814376443711   -1.85209351632787    1.29184241165551
