    23
        -45.37030180  Gyration_radius:  2.26555712713 Dipole_moment: 2.655
 S           1.43784244330756    1.15118575107696   -0.11089460561070
O           2.42392769127137    0.35365520705761    0.58596620642346
O           0.30775284910551    1.53945027144732    0.70510932124417
O           1.00681138718073    0.50791238908446   -1.35752548285694
O           2.16671358645202    2.48820730914072   -0.53882240633348
H           3.04678797308586    2.17387986044509   -0.71837337824002
H           0.58371140107219   -0.95743004775202   -1.30486353043438
O          -0.81141094576062   -0.39636247190666    2.02540646939891
H          -1.10113222669173   -0.06470661236458    2.87644839447839
H          -0.39763399560124    0.37366986427940    1.55585304293700
O           0.22654478875446   -1.87884466812822   -1.04809700231081
H           0.70750982776944   -2.07482847279633   -0.13927289658798
H          -0.81012311868151   -1.69227204926881   -0.77678375744450
O          -2.03910887395528   -1.21927619868704   -0.27278082984133
H          -1.81861195634475   -1.03016934832639    0.65755403489331
H          -2.09713758299011   -0.31669136476181   -0.71332850552395
O           1.30783908962891   -1.93347716743907    1.21914257821701
H           1.89228515676433   -1.15368819096677    1.07060953682524
H           0.57105881667574   -1.59419520965744    1.75643318507316
N          -1.77030212487776    1.18959577627709   -1.29964599876900
H          -0.77741372338122    1.08845695597466   -1.50705922491740
H          -1.82777937180872    1.86881425979191   -0.55024184825100
H          -2.22813110277005    1.57711414782289   -2.11483330088533
