    23
        -45.35354697  Gyration_radius:  2.45405346529 Dipole_moment: 4.825
 S          -0.23739881360257    0.90556827900319   -1.38231195557333
O          -0.28982186523665    2.30692037011443   -1.65273475703720
O          -0.41599466764428    0.03909552571537   -2.51127891971399
O          -1.34677090773295    0.55314365363438   -0.31163981328359
O           1.03560444132353    0.50371011270943   -0.65897031527333
H           1.15248956145796    0.98630102194635    0.27875393947191
H          -2.17515306534767    0.84509066388953   -0.74930060924677
O          -0.53391249536933   -1.87548701125455    0.97132251503732
H          -0.12335302434992   -2.20900707934610    0.15084463332375
H          -1.01302525068156   -1.08434932329475    0.70207960519937
O          -2.83971068417158    1.53636985794624   -2.22068785443846
H          -2.18998226223580    2.25308189735399   -2.24524924383148
H          -2.57117915156695    0.91636967285756   -2.90638715427130
O           0.60687885406761   -2.26008874700924   -1.48861744949013
H           1.52739959863261   -1.99983878747334   -1.41640589594410
H           0.17341770853429   -1.53833471021392   -1.97586606798353
O           1.39575610846345    1.50434770415370    1.58281594625794
H           1.28774699004786    0.65724220524817    2.16376068890786
H           2.31967172280096    1.76110532847533    1.62667425134662
N           1.12706832767057   -0.70148042394094    2.91318828106254
H           0.60910273071697   -0.61975052362253    3.77878634621319
H           1.95891231261901   -1.24800381632602    3.09724785995407
H           0.54225380163842   -1.23200586058557    2.25397597933293
