    23
        -45.37574813  Gyration_radius:  2.29344690351 Dipole_moment: 5.770
 S          -1.85747330425364   -0.69238009058107    0.15515147165512
O          -2.08607767384341   -1.31041561427743    1.42085281921877
O          -0.71616279434337   -1.25009222612956   -0.57779429453181
O          -1.73362927854500    0.76767234838306    0.22778069781826
O          -3.11028550755440   -0.97586603713988   -0.77848908931607
H          -2.75975838012323   -0.83737436659308   -1.65335900003228
H          -0.47200507693495    0.93263247165843    1.39233929408499
O           0.61728108730688   -1.79826887027110    1.66118530743716
H           0.07529992235824   -1.72090736848914    0.84977105637013
H          -0.00291846992819   -2.12702313685348    2.31758877659624
O           0.42328127693345    0.89056512522124    1.78689184915708
H           1.28893052888699    1.21072594184411    0.54835894965332
H           0.58087405347268   -0.06350051594743    1.95178374746775
O          -0.52383102248684    1.97808259074273   -1.70386944490414
H          -1.03869267731952    1.47741336390111   -1.01432108761293
H          -0.87704804129770    2.86944271941757   -1.68761543078360
O           1.93054723291485   -1.30335952213502   -0.98125912349154
H           0.96002803906919   -1.37209670286165   -1.07120527292062
H           2.12615205087626   -1.76996662523084   -0.16186479123222
N           1.72446841671426    1.28258092443270   -0.43558592229194
H           2.54047543788992    1.88302878705918   -0.45648287890333
H           0.95857183603784    1.63762574769693   -1.06082577115335
H           1.95197232424264    0.29148106618808   -0.72903183224112
