    23
        -45.38023213  Gyration_radius:  2.32669707605 Dipole_moment: 3.134
 S           0.31500872999161   -0.88031926316114    1.08006427112690
O           0.19779823820875    0.17654540085823    2.04992799462721
O           1.16884464501323   -0.50059014009854   -0.04504252042353
O          -0.99981428337791   -1.31880394967647    0.56960113284824
O           0.96699920038255   -2.11029695804390    1.78249780703706
H           0.84861198117580   -2.83308046759547    1.13428072645251
H          -0.41767220314658    1.72610378762105    1.60821931769380
O           0.37970775496882    0.59420304189461   -2.35012908103096
H           0.74532844592314   -0.01306200528918   -1.67378307423232
H           0.92660500960279    1.38360216878895   -2.28112407171804
O          -0.63391495962667    2.45594921864182    0.98904133680188
H          -1.40582517142887    1.60942724205842   -0.05863767463463
H           0.21890792985336    2.62454709877632    0.54125822104322
O           1.77601192835617    2.07458913938583   -0.18315448227424
H           1.62447281584076    1.10770831388172   -0.07260469647327
H           2.52497990371052    2.28516787556923    0.37599760569465
O          -0.05366233646795   -3.67240083078476   -0.09453842205408
H          -0.61767086129156   -4.37882069244197    0.22806421489490
H          -0.58150454418066   -2.84919399408385   -0.04767686258267
N          -1.71310343784165    0.83419454936481   -0.73987337979858
H          -1.02286830210575    0.81246255143493   -1.53942320428711
H          -2.66971980174776    0.94840913388245   -1.05579111292584
H          -1.57752068178214   -0.07634123106526   -0.21717405570613
