    23
        -45.36483630  Gyration_radius:  2.37919712511 Dipole_moment: 8.114
 S           0.88613934392028    0.29459885867684    0.62435340467393
O           0.97877392411922   -1.14227711134045    0.53157210489614
O          -0.49331226063843    0.76221261733048    0.61523592993381
O           1.61574984185920    0.96366032529599   -0.47918763244355
O           1.56584853084906    0.73026225132678    1.95410598980483
H           1.73128886690303    1.69182372937341    1.86164974509165
H           0.55245907788209    0.80363105766023   -1.57033034652753
O           2.19590966478038    3.09667882944330    0.94915768266742
H           3.14045846411841    3.26494215075345    0.98171813710672
H           2.04708813165161    2.47368620481551    0.20966468274649
O          -2.47488513337293   -0.91281274308614    0.21321683666483
H          -3.20746216182731   -0.71254534012437    0.79775944031331
H          -1.75871144625088   -0.27511573487789    0.44284868695098
O          -0.56450330463578   -1.91541611636317   -1.48338254742419
H          -1.41263827219934   -1.95564793360711   -1.01465580445879
H           0.10865061939461   -1.86216116712656   -0.76798930035684
O          -0.92290702290385   -2.71415232306287    1.87713295935927
H          -0.09904370931641   -2.29416011257720    1.59846943842225
H          -1.61459949928777   -2.28173582149328    1.36268725056547
N          -0.35620763555820    0.57831081468260   -2.09686538797383
H          -0.48390385221822   -0.50717391658688   -1.97634892258988
H          -0.33876731241977    0.87647427257418   -3.06732396631486
H          -1.09542484482297    1.03691721829667   -1.56348838108874
