    23
        -45.36196351  Gyration_radius:  2.28955643697 Dipole_moment: 2.706
 S           0.14398541334223    1.84956578897926    0.29570196779881
O           0.59900622595637    0.97740382499941    1.35296476980373
O          -0.48746674352416    3.05334867576949    0.68769155398812
O          -0.78120176478617    1.03181174358437   -0.64044639499838
O           1.34262930964715    2.16978378778317   -0.63764157842160
H           1.67332888398926    1.29817610407421   -0.96802050073620
H          -0.89734637707857    0.04495425620895   -0.32298729480081
O          -0.31068909396664   -0.94198028457676   -2.61232379341425
H          -0.69864600519844   -1.48499247568881   -1.91254459129177
H          -0.79993494583216   -0.11285564296435   -2.59163756822629
O           2.02002712532108   -0.17660752022807   -1.61640360706192
H           1.18289620434702   -0.50216605012209   -2.04248682907888
H           2.66893628234807   -0.09430743992092   -2.31804145851295
O          -1.06040932089528   -1.35897037584495    0.08855812013129
H          -0.14340434242976   -1.60254521956329    0.38178462751815
H          -1.54241073096269   -1.13713883008727    0.92422537501259
O           1.46851964792595   -1.50046519659045    0.81562967339664
H           1.96694888725369   -1.29750803322276    0.01451523041051
H           1.31889010169366   -0.63697367777109    1.24219972975110
N          -1.92407807050340   -0.09867247958263    2.27670157304702
H          -2.65944302738026    0.58003727037648    2.12194195607451
H          -1.04069989676420    0.40765061910608    2.24788814932798
H          -2.03943778223159   -0.46754884487151    3.21273087025163
