    23
        -45.36378506  Gyration_radius:  2.31715107071 Dipole_moment: 1.873
 S           0.21168992924708    0.12825456125720    1.63430281394968
O          -0.09799147530194    1.24046995013480    0.75721007808788
O           1.38089236697785    0.31396342842443    2.42882289363576
O           0.38270597460535   -1.14315401531457    0.75231588289366
O          -0.99802064673112   -0.19963868733112    2.48822421303837
H          -1.79260154282269   -0.46966167856025    1.86908100298190
H           1.37312706104899   -1.19488596677242    0.55145641126884
O           1.91493517483991    1.32495060987128   -0.97413473224549
H           1.13645317241216    1.38198088249743   -0.38073288656178
H           2.28450254874860    2.20879489236083   -1.01823069890970
O          -2.89882737346173   -0.74656882378109    0.94453554906965
H          -2.67343731072725   -0.20244306857216    0.12019100923682
H          -3.70878514574755   -0.37419762608304    1.30118321908285
O           2.87603369825731   -0.78421986016309    0.41355135546777
H           2.76920833955805   -0.03992633620559   -0.21299611331023
H           2.90852038525273   -0.39041720525231    1.29668131760037
O          -2.12456812623848    0.77529681362966   -0.97719349827550
H          -1.46231732441072    1.20432798239272   -0.41038706522948
H          -1.58267748328776    0.24069123496885   -1.60414222980457
N          -0.21063828215577   -0.68027142125828   -2.22452854038153
H          -0.17933764867280   -1.19729494999652   -3.09399071775356
H          -0.09920026425588   -1.33767208970108   -1.46059276690104
H           0.59033396287348   -0.05837861651241   -2.20062650692538
