    23
        -45.36620953  Gyration_radius:  2.34289080514 Dipole_moment: 1.093
 S          -0.99568408280439   -0.18321156356096    1.25467705600334
O          -2.29100660026581   -0.78503370783959    1.09544982034858
O          -0.82091871082369    1.06386398077182    0.51681659527166
O           0.11950019336926   -1.08740847069522    1.00322520748321
O          -0.88635726722770    0.20244870760247    2.80430949381695
H          -1.73692684214472   -0.05404762884208    3.14632430751248
H           1.00529162423427   -1.02615531184306   -0.20366546676279
O           3.09432482684995    1.00335670297832   -0.17447887626614
H           3.11448953750066    1.80642930544158   -0.69871507116393
H           2.57971857162762    1.22113244569390    0.64477472268471
O           1.43266747582232    1.53681604109661    1.79243984129713
H           1.33265296019275    0.93891590020696    2.53618254689262
H           0.57398434047541    1.50016145129212    1.32383561064652
O          -0.33626735642393    0.52783387639104   -2.01985070652122
H          -0.56551133408517    0.96258926541750   -1.16885159905503
H          -1.04329191014028   -0.18097903432250   -2.10479691552557
O           1.51652243067174   -0.79330921415272   -1.06425788360227
H           0.76147035987562   -0.21032250401845   -1.61116227023119
H           2.24025516324079   -0.13100912432474   -0.76762558625672
N          -2.10063454435945   -1.39146150987314   -1.69132171974326
H          -2.25318311839110   -1.21208022242682   -0.69670569519682
H          -1.73498784822214   -2.33243389114395   -1.77212952623409
H          -3.00610786900351   -1.37609550385827   -2.14447387537878
