    23
        -45.36687073  Gyration_radius:  2.49037001319 Dipole_moment: 8.075
 S           0.62836464118270    1.30287208840532    0.00309778363664
O           1.42399470617918    2.35031443993790   -0.56087074545592
O           1.15233330003841   -0.04241168115261   -0.24701751705450
O          -0.79482305708365    1.31270894336830   -0.71780876693604
O           0.29535445058063    1.46299324469996    1.42151621181211
H          -0.90391031502002    0.73532783182409    1.59207267450184
H          -0.56993428152063    1.61865993249341   -1.64879634762505
O           0.22667591142933    2.06906864618726   -2.93814892743358
H           0.86900497921135    2.51663234554018   -2.36269643022714
H           0.66576905801573    1.23270414172903   -3.19295977648115
O          -1.25911277227891   -2.31813072878665    2.20080006565841
H          -1.21793131059159   -2.49212709756892    3.14305317073237
H          -0.31343230177083   -2.28489207208556    1.89723322878929
O           1.23626188810372   -1.98713267304582    1.48949928470135
H           1.78592099879237   -2.63501190786358    1.04549230090745
H           1.23435506761837   -1.19382713447646    0.90014306609490
O           1.38963059506646   -0.36574758811042   -2.86948587419879
H           0.93099072062352   -1.18990106820195   -3.04030355429621
H           1.42130581431537   -0.26494921456866   -1.89340282586104
N          -1.85779237734286    0.16761900543389    1.48876540871857
H          -2.04119792159977    0.24233498231736    0.48628850153123
H          -2.60120099923335    0.60254275316827    2.02522251399400
H          -1.70062680471796   -0.83964718924938    1.77830654448412
