    23
        -45.36607947  Gyration_radius:  2.38982659847 Dipole_moment: 2.149
 S           0.13101874991957   -0.80466211036751    0.60672552359101
O           1.16296627448913   -1.65913392615999    0.09394146373210
O          -1.13362746448973   -0.91840651686179   -0.08407150340331
O           0.59324669165216    0.65807742929931    0.57310632449621
O          -0.05815660807552   -1.08200059200269    2.09266584125169
H          -0.83151220616939   -0.51048629471908    2.45274606254034
H           0.98491828700523    0.90547630384999   -0.37997131054962
O          -0.00926592165809   -0.97371865236297   -2.51980879830750
H          -0.58477542324965   -1.02523934637350   -1.73598597084613
H           0.57481962345008   -1.73422108305968   -2.46075431181778
O           1.50777004016254    1.05411040437246   -1.70821050619485
H           0.92972907779725    0.43991186351822   -2.21919498189154
H           2.36323353545589    0.57858316870466   -1.62580699834580
O          -2.04828522813051    0.29514541111138    2.84153290049905
H          -2.17172739628229    0.90954910742345    2.05489228241354
H          -2.79542910469826   -0.30781126627152    2.83383422333273
O           3.39714686650254   -0.71633442227574   -1.05783519838606
H           4.06928741598245   -0.60189128249812   -0.38427566279587
H           2.66336523960639   -1.20239042726334   -0.63377312489224
N          -2.24037354650028    1.62113690425760    0.57526538579080
H          -3.04455484516676    2.05273640552937    0.13789103599770
H          -2.00751485153896    0.77177060610695    0.06417482364355
H          -1.45227919603081    2.24979832605629    0.48291251013049
