    23
        -45.36607921  Gyration_radius:  2.38986882096 Dipole_moment: 2.140
 S           0.81456056968866   -0.06378568387222   -0.60109519688068
O           0.81616999569586   -1.30769493678830   -1.31586540222595
O           1.21948378617952   -0.17154104988936    0.78231064942304
O          -0.57617985913372    0.58104690357592   -0.66966752580091
O           1.70435097522609    0.93498344487726   -1.32995966135748
H           1.75510544333907    1.80761641813587   -0.79090088327334
H          -1.32635184612102   -0.11920078774663   -0.40565408072924
O           1.83794333535096    2.99558185684889    0.13740629506521
H           2.65706520768474    2.90588989188781    0.63022557535793
H           1.09361152974996    2.82157484438844    0.79104504962713
O          -2.20518279412793   -1.19939710740623   -0.05790342624742
H          -2.19216107771950   -1.72454383258114   -0.88780765128481
H          -1.64780615438332   -1.71505781049925    0.57145990864837
O          -1.41865601891147   -2.42904959341282   -2.29352599144931
H          -0.52666064593691   -2.12775670181742   -2.03262544546426
H          -1.55753247183999   -2.11679849626074   -3.18898943889230
O          -0.20589534193755   -2.40353496245242    1.21660970397935
H           0.40702074322386   -1.64718151281049    1.23700575959668
H           0.15140318857082   -3.00647224864829    0.55945230376828
N          -0.02977097876668    2.17592220215593    1.80185390111935
H           0.33501601032230    1.22761744955391    1.73496243946062
H          -0.92736001433006    2.18326449095747    1.33375988401071
H          -0.17817358184509    2.39851720187791    2.77790322355313
