    23
        -45.38062504  Gyration_radius:  2.25487919183 Dipole_moment: 4.354
 S           0.47841068785248   -1.27063111332134    1.32250300102812
O           1.49794433870314   -0.39549969877387    0.74932118151215
O           0.22451400425704   -2.45108378432986    0.53448260536225
O          -0.73287602342468   -0.52920484149610    1.65242906560605
O           1.08856833803214   -1.77420355060139    2.69746430712888
H           0.63927109782461   -2.60503028425576    2.80859660946026
H          -1.87645682508905   -0.19447531717880    0.40917256484622
O          -2.22523446312199    0.08542719436942   -0.46308113171348
H          -1.33634832985453    1.25802724289745   -0.73450880450671
H          -1.88072234470654   -0.60183274645997   -1.08509263683770
O          -0.72796823309359   -1.61181031711470   -1.81753110559805
H          -0.41737308308204   -2.08809428011352   -1.02175953837394
H           0.01971277441900   -1.06685764705260   -2.09567934947464
O           0.41958883634012    1.83834487279627    1.63800716003014
H           1.16903175407825    1.25405965477080    1.42361741486919
H          -0.23913343286928    1.18605269711659    1.94196603100471
O           1.39781628273807    0.27480336209574   -1.75328143449088
H           1.48056553550422   -0.03925759972869   -0.81458222361582
H           2.28360052048294    0.25351276589437   -2.11815684211431
N          -0.51920590200194    1.98288133257106   -0.82349294357524
H          -0.14381099851429    2.10647663402182    0.16655284349551
H          -0.82279605807846    2.85858004780590   -1.23287737788182
H           0.22290152360213    1.52981536608650   -1.38406941616134
