    23
        -45.38062446  Gyration_radius:  2.25467646172 Dipole_moment: 4.361
 S           0.46698438131702    1.24044773285354   -1.35437729960281
O          -0.62290680011470    1.54445772721334   -0.43119285796182
O           0.06068110879997    0.43690910805344   -2.48036849457662
O           1.62397558967351    0.69818703516302   -0.65128901882288
O           0.91467904389741    2.64382890018367   -1.94259357508995
H           1.30840979812575    2.38427497122981   -2.76861589740333
H           1.64684454434193   -0.97582334814843   -0.24521397235167
O           0.89683995849232    1.56853866641593    1.72275610994026
H           1.54283048345269    1.31609983018133    1.03591914747290
H           0.16492404039023    1.89857456067169    1.17183154209921
O          -2.19850567548953   -0.33406954898409    0.41226906356207
H          -1.64463935090055    0.39839904600814    0.03374922857834
H          -3.09809917617499   -0.00446366602091    0.42737739177652
O          -0.77894240171377   -1.89911193763135   -1.49056055525509
H          -1.48746112410780   -1.57478715263755   -0.91947926320050
H          -0.49771374142037   -1.12458742046272   -2.01746225599035
O           1.33117777638685   -1.84090951157301    0.09045356649871
H           0.55860271650240   -1.38863801837866    1.28924441170335
H           0.61985627173860   -2.09528899667962   -0.54775007321538
N          -0.06309453657493   -0.87011745086374    2.02804700071420
H          -1.01296490066889   -0.80097139384956    1.62418650693813
H           0.33436203914794    0.11729513506241    2.08643552379991
H          -0.06584002509901   -1.33824425781006    2.92663377038755
