    23
        -45.36638247  Gyration_radius:  2.37531335903 Dipole_moment: 7.410
 S          -0.44636823062352    1.09377860874328    0.00344647747772
O           0.58997556838778    1.22723010425750   -0.97386540646143
O           0.01429855817436    0.68343081412641    1.31645047376677
O          -1.50865811881584    0.09471637281878   -0.46487677883749
O          -1.23122578351598    2.40154306247621    0.12577018106032
H          -1.90082956242134    2.20428861908424    0.87718696044732
H          -1.05316165842008   -0.83874277574738   -0.73227404660326
O           1.19140244355996   -0.86124024516048   -2.87170120569747
H           0.81814548827761    0.02469443258553   -2.81001136336556
H           2.02870822660362   -0.79875856831973   -2.36527105361148
O          -0.28690068733799   -1.98777960745415   -1.03384024397906
H           0.23824779326853   -1.69613169672837   -1.83366914287001
H           0.35958949025348   -2.05216815825838   -0.30661250759944
O           1.42310453997743   -1.52751680992809    1.05171261023475
H           0.95408895411381   -0.68124030359779    1.23103493526816
H           1.58547660802759   -1.94039689004432    1.90158520650404
O           2.96525040416255   -0.24528322905983   -0.93368540712364
H           2.69418858541081   -0.82249512432057   -0.20715462557664
H           2.37032216911881    0.51673185693529   -0.88658719869399
N          -2.63773961914970    1.47162688598148    2.04856024979433
H          -1.81426327568336    0.95707321624091    2.34442081752286
H          -3.31528649851393    0.81699765104115    1.68082906599480
H          -3.03836540484807    1.95964179431627    2.83855200235048
