    23
        -45.37622498  Gyration_radius:  2.25369484827 Dipole_moment: 4.591
 S          -0.31983365006290   -0.75096662417265    1.05512586314753
O           0.78853251287272    0.09778822158004    0.58289740501503
O           0.14885416002270   -1.99447119915710    1.60503938107139
O          -1.19809337708040   -1.05761919614201   -0.22287413186241
O          -1.23194424181795    0.01514932770277    1.89063757589597
H          -1.65618752441488    1.05778737861108    0.84684752818823
H          -0.62134071618247   -1.45231740987522   -0.92353333905471
O           0.00730862511191    1.01161623330112   -1.77383225559465
H          -0.04494734518450    0.23836717801986   -2.34315287880169
H           0.50949640069173    0.71031227090969   -0.98681241481719
O           0.46452798840368   -1.95586199507839   -2.03391228527504
H           0.25455032011049   -2.82957743041516   -2.36908757222810
H           1.21501604515268   -2.08507032835654   -1.38887146715361
O           2.16721198018276   -2.23976224881768   -0.07083817286039
H           1.48577718671213   -2.31998797206741    0.63398072522487
H           2.55061968423940   -1.36978646337250    0.07441803728774
O           0.52462786505736    2.55102197265238    1.58102669723700
H           0.33237111227166    2.41070719815395    2.51060769756323
H           0.80322228496144    1.67149850559672    1.24090699037462
N          -1.60698545588907    1.88955564537982    0.16703264458925
H          -0.88067664298528    2.49689117089021    0.62389512300265
H          -2.49942710784528    2.35385028675038    0.03918973278850
H          -1.19268010432713    1.55087546790750   -0.73869087373867
