    23
        -45.36596469  Gyration_radius:  2.40313839168 Dipole_moment: 1.829
 S          -0.44635918576636    0.31186829670419    1.48200933511319
O          -0.20267790841631    1.31358918499011    0.47250588817644
O           0.73166368964761   -0.13881271934000    2.16832532128821
O          -1.18228671076865   -0.87456552899673    0.84067555098063
O          -1.47616552920763    0.83263918890735    2.48671515521349
H          -2.23050156520641    1.18319771037190    1.87816584399915
H          -0.56302304117261   -1.45396980834031    0.21991624600048
O           0.47346489536359   -0.62976941994755   -2.82019426899319
H           1.02148131327834   -0.88979246376530   -3.56220037261169
H           0.97274556689907    0.07745743710029   -2.34020240348938
O           0.38480213847831   -2.14231469724873   -0.64421019130481
H           0.31918219875841   -1.67324798404070   -1.51296887814809
H           1.26086078528348   -1.90717168334586   -0.28305698003091
O           2.59357956522985   -1.06003229159658    0.55359106409628
H           1.98316764985775   -0.68231994302262    1.22675099739608
H           3.29033637742315   -1.50320837703577    1.04112098637201
O           1.86481847233512    0.99050814230964   -1.25074199339528
H           1.14768775771112    1.28883694950590   -0.66352326516143
H           2.38333845045166    0.37134029687920   -0.71888011770046
N          -3.01898056884465    1.59703884007817    0.60141855428949
H          -3.63376157335994    2.39971094934166    0.57255263631968
H          -3.49150380421645    0.80085589483591    0.19415493219368
H          -2.18186899384002    1.78816202567255    0.05807594943733
