    23
        -45.36006803  Gyration_radius:  2.3947565728 Dipole_moment: 2.647
 S           0.28692018756641   -0.99352254287197   -0.42503799300061
O           1.42871802310030   -1.65173333230945   -0.98897824407082
O          -0.86849386926788   -0.94180690012126   -1.27659400327682
O           0.68784181489754    0.45709113949041   -0.02197230498436
O          -0.11845686599962   -1.60606277824150    0.91153683278792
H           0.35206493962554   -1.15861784167397    1.71629703607884
H           1.13626442041116    0.88134312315526   -0.82496161955271
O           1.81116464218115    1.30311458092789   -2.15289025783314
H           1.44174611382521    0.64214445726044   -2.79596237672565
H           2.75192181085333    1.11839413141198   -2.09658223270083
O           0.82492822525212   -0.76607684612944   -3.45073884772389
H           1.24624350384645   -1.35522290057375   -2.80278969175078
H          -0.10589705816325   -0.77758385987915   -3.19578389440973
O           0.81151228187765   -0.42005568073361    2.92023047985755
H           0.32576939031327    0.44291490885896    2.74663220632233
H           0.40908798171008   -0.80673670809452    3.70140697322561
O          -0.58984979280485    1.65629432800313    2.23521070189332
H          -0.03103658714108    2.00504550371165    1.53577866222112
H          -1.33830989869755    1.20628331813283    1.75854425015364
N          -2.44990989922545    0.34648952256622    0.79103464615653
H          -2.87950391093680   -0.41513423076662    1.30215893340414
H          -1.93604369415257   -0.07181223845209    0.01814913042130
H          -3.19668173901185    0.90525086635252    0.39531164347203
