    23
        -45.36385618  Gyration_radius:  2.34081874945 Dipole_moment: 3.337
 S          -1.02199673202103    1.31593650217722    0.05511580163215
O          -0.16885448185004    0.82904658751010   -1.04749520764815
O          -0.57841245913014    2.55903695387301    0.60066776495634
O          -1.18612135421122    0.25002585957915    1.04457644450507
O          -2.45070381674385    1.53900846179369   -0.57648264844674
H          -2.71815874642017    0.66292402510364   -0.86881681778569
H          -0.27428101684594   -0.88318852393816    1.18472090310341
O          -0.43572028614118   -2.93549482261998   -0.94470965561866
H          -1.07862312495380   -2.28530931775663   -1.30154199494561
H           0.24085204444416   -3.05510764573480   -1.61436994886018
O           2.05383199718777   -0.11397450964338   -0.01090894971185
H           2.19184491709402    0.59318925366876    0.69606304304467
H           1.35954500977210    0.28457129668993   -0.58470730995413
O           0.45581343911120   -1.61989555426469    1.10257931443999
H           1.27937257149820   -1.03578819843063    0.63782248541757
H           0.11158456224104   -2.24588248646422    0.38924232570164
O          -1.84432316709403   -0.86865484184365   -1.94511854426943
H          -1.13614426417092   -0.22369186548645   -1.67372421131543
H          -1.97885563371700   -0.74529052697098   -2.88687993461069
N           1.89413262506641    1.78571871506971    1.77981214105572
H           2.55801983461524    2.54873068518010    1.82827018683410
H           1.70841332506411    1.48040285486450    2.72734295324634
H           1.01878473720652    2.16368707764567    1.40854183922977
