    23
        -45.36385617  Gyration_radius:  2.34066639795 Dipole_moment: 3.332
 S           0.08338594159118    1.32483665333788    1.00900267977045
O           0.05754428759078    1.26249612236750   -0.46615795212112
O           1.33779315256904    1.76601540267455    1.52998716134241
O          -0.37743838659241    0.04692670353590    1.55378438900678
O          -1.01479100785860    2.38406608482183    1.41149186944715
H          -1.83748120209497    2.00387176225294    1.09043300329829
H          -0.36782820058609   -1.20975972207942    0.80830440233939
O           1.41815831306827   -0.85460132594339   -1.22306249584038
H           2.17219382720800   -0.78457825252778   -0.55558647385730
H           0.97916543599681    0.02383630256125   -1.14863478393341
O          -2.41039635460578   -1.46331507635864   -1.32277894934473
H          -2.20224015159305   -1.43076385089001   -2.25880857317253
H          -2.59058362173751   -0.54135075326257   -1.03823849389598
O          -2.47971804630685    1.15123343471935   -0.67954368318120
H          -1.48570758736649    1.20580956709296   -0.69285503156440
H          -2.79780247971057    1.82311511606967   -1.28581850290260
O          -0.31592124677418   -1.98176510204934    0.11268901957594
H           0.49368467511125   -1.60340012072453   -0.54782016965141
H          -1.17288530228917   -1.91113650239702   -0.41646290822978
N           3.02342828709248   -0.40584965628289    0.79249789681003
H           2.50550495424641    0.41405535786435    1.11859209234154
H           3.98949073276655   -0.12715960360512    0.67288389117287
H           2.99244398028003   -1.09258256119170    1.53610161258965
