    23
        -45.36665476  Gyration_radius:  2.26831358417 Dipole_moment: 4.259
 S          -0.15044017057929    1.55978871254748   -0.59121394246139
O           0.59694920613797    2.76273233056017   -0.46544519884727
O          -0.57118908386547    0.97279987940105    0.67727173085143
O           0.65787098597373    0.48265732333479   -1.35151029234573
O          -1.37099253727676    1.75170319952517   -1.47527959292427
H          -2.00715583026429    0.95919490255823   -1.27559810983427
H           1.44549035895849    0.15040719136349   -0.76545688240335
O           2.39176803449964   -0.33716179543134    0.28099902092420
H           1.82689214232684   -0.99305836436201    0.73206220970175
H           2.43104395147366    0.42987646800047    0.89708953770823
O          -2.72488873434063   -0.23549971111157   -0.74966694998157
H          -2.61406258978715   -0.09231531317187    0.19506420441896
H          -2.11886436029965   -1.00560666410031   -0.98494632872871
O           0.21574771315746   -1.45045914947588    1.48315243912022
H          -0.15796134218640   -0.58378555943437    1.21762378741123
H           0.21009171934687   -1.46344140755602    2.44210642333880
O           1.79413605034105    1.76605212472568    1.81265577706220
H           1.94407175169984    2.56557572029884    1.29746552951788
H           0.85165433594572    1.57797301612050    1.68672830822863
N          -0.89701839943072   -2.07431653662564   -1.23842930487225
H          -0.21763340253813   -1.50458119419369   -1.73083426825729
H          -1.03783462743315   -2.93043083385127   -1.75843439324081
H          -0.49767514186175   -2.30810433912187   -0.33540369438299
