    23
        -45.37862799  Gyration_radius:  2.28699366523 Dipole_moment: 3.429
 S           0.62788716618574   -0.73749442351164   -1.55944829923448
O           1.25100175867793    0.49003513122004   -1.99561281632748
O          -0.81855857146421   -0.68059778921845   -1.45790448919923
O           1.23187626645865   -1.26968981884824   -0.33680886026312
O           0.92897102502581   -1.81244798311086   -2.68988806140095
H           1.81239747360189   -1.59065560524225   -2.96633815902599
H           1.46658041723983   -0.07006510087456    0.97412895542857
O           0.82303567588310    2.49738666324446   -0.36596033554389
H           1.00839601023828    1.78376105878892   -1.02142362173693
H           1.20918775339403    3.29863834783752   -0.72273584297173
O          -1.71656518336485    1.44826652458638    0.01416277859731
H          -0.95814964377773    2.04836614823263   -0.05843637126452
H          -1.54150062094442    0.74652931410090   -0.63497397083429
O          -1.21156063723359    0.14340138120253    2.26641683815448
H          -1.58265953630719    0.73171211023645    1.56379608050048
H          -1.16425392915641   -1.12145336953633    1.54344718536041
O           1.31776536690509    0.63066851321916    1.63149684786830
H          -0.25034025184614    0.37307648337841    2.27724842705133
H           1.25218904907588    1.44937801719045    1.11636456033035
N          -0.99268789861988   -1.94368290557677    0.81216365284750
H          -1.33701067246383   -2.84720204407399    1.11550632015516
H           0.03091192738953   -1.93545484860205    0.59004479589597
H          -1.38691293490450   -1.63247580455844   -0.09524562453013
