    23
        -45.37137310  Gyration_radius:  2.42275320609 Dipole_moment: 4.861
 S           0.61910099177715   -0.26924400712355    1.02787630026646
O           1.15039452513589    0.38250280951046   -0.16056671176255
O          -0.23686847833856   -1.39566917375943    0.68996319459970
O          -0.09062995540047    0.69546714344900    1.88260120486724
O           1.81547421910153   -0.83787672236650    1.85755884853710
H           2.21467137703325   -0.06893547567198    2.31807096409443
H          -1.61198636787307    0.75008804170422    1.13452128273069
O          -0.83211807419898   -0.76619775722202   -3.25314259505986
H          -0.15306719356533   -1.25772736409961   -2.72544699162916
H          -0.46635012267737   -0.67775499652563   -4.13447938292009
O          -0.87842621918005    1.32634057886724   -1.62753160481024
H          -0.02439569305399    1.16590917738578   -1.17064856422074
H          -0.92049741113416    0.63535639866253   -2.33426278903600
O           1.03918786075078   -1.81174418485936   -1.68729034428389
H           0.56454763153953   -2.21557968291717   -0.94887408605408
H           1.34872076210626   -0.97092205262644   -1.30424972019934
O           2.12050324748890    1.47896563841179    3.10150160548190
H           1.22796074530992    1.47200542903908    2.70222339848365
H           1.99477254367144    1.45376190756893    4.05285313840179
N          -2.16172066925694    0.33518583571544    0.34593586760940
H          -3.16773590852101    0.38195465452506    0.46618243709312
H          -1.77815837277559   -0.63287166641237    0.33357707136316
H          -1.77337942796185    0.82698546873664   -0.56637252354206
