    23
        -45.37962909  Gyration_radius:  2.2853197592 Dipole_moment: 5.421
 S          -1.45656642724823   -0.38443708118325    0.23891385914062
O          -2.11812854386147   -1.09226975413504   -0.81972213576705
O          -0.90883250001086    0.90496613898475   -0.20857431001448
O          -0.37204065954765   -1.16684349192680    0.86393279805213
O          -2.50103216517345   -0.07911690065987    1.35042887529582
H          -1.95948316155539    0.19872376809860    2.12208465941799
H           1.01300181108341   -0.76771542911792    0.34479759463603
O          -0.42008041000250   -1.85881491936227   -2.68252101548224
H          -1.07096170860148   -1.67521816199323   -1.96702337726698
H          -0.94246144165972   -2.09249084928627   -3.45203063575980
O           0.77095466626181    0.47481451793683   -2.25255964896622
H           0.03856876687703    0.82522313437118   -1.70773032765740
H           0.42183229706860   -0.37267400554853   -2.60966575862505
O           0.94430827804415    1.96048941090140    1.24910629427422
H           0.18712329815773    1.63116230626659    0.69067765781062
H           0.97183829651927    2.90984999398882    1.12240521265372
O          -0.51903578907749    0.36635826395034    3.03357176034061
H           0.03689050308831    1.08810557847626    2.70351776747924
H          -0.25882722890313   -0.41429014932176    2.51664133125848
N           1.87695873657117   -0.25717164908373   -0.03230278226551
H           2.71155059876601   -0.83068269408276    0.01064314046599
H           1.95570618753871    0.60675974657399    0.52639323637527
H           1.59871660621281    0.02527221620933   -1.04098419509056
