    23
        -45.37322234  Gyration_radius:  2.27023663455 Dipole_moment: 6.210
 S           0.15592884509232   -0.01524708955423    1.13248174221440
O          -0.58409859230082    0.13244765263658    2.35355345615201
O          -0.50892390143329   -0.89304734806289    0.16734075941788
O           1.54405468737137   -0.73228423217811    1.43092609352393
O           0.57365087118337    1.24324545071294    0.51284674744115
H           1.62249731782010    0.83862855470326   -0.51672606675143
H           1.27147111376800   -1.53699527249852    1.91682269012438
O          -2.66514093161466    0.74499104616292    0.36619029827968
H          -2.06132719922381   -0.00333862516700    0.24401496059654
H          -2.53159151894508    1.02077071281822    1.27653985629013
O          -0.07476165332427   -0.34164438328754   -2.38527747252899
H          -0.35573539482787   -0.77406863234702   -1.54983399590916
H          -0.54120662027722    0.53419840343323   -2.34131205848784
O          -0.08603451305944   -2.50316783948283    2.51184213327464
H          -0.48013210641615   -1.67206037460665    2.82454370565724
H          -0.55777889659547   -2.71665553663643    1.70077834738525
O          -1.09514936693539    1.94587596276140   -1.56159968538143
H          -0.47346444786550    1.96977604012811   -0.81606622016554
H          -1.93818213671706    1.70620652444993   -1.14306239886270
N           2.13075260300968    0.37975282876662   -1.34349465806260
H           2.68304214243989   -0.39422316412725   -0.98604422101979
H           2.71056438476917    1.04725051468423   -1.84191552576606
H           1.26156532407178    0.01958877669188   -1.95254848740919
