    23
        -45.37322247  Gyration_radius:  2.27022567312 Dipole_moment: 6.205
 S          -0.31337807812987   -0.61342379958756    0.91182221615352
O          -0.79569185736679    0.61386116451179    0.27540939291966
O          -1.37853586889848   -1.46203905686599    1.36524434501120
O           0.53559576845711   -0.10721763546215    2.15838168015915
O           0.69574778171632   -1.28252376298376    0.08940170248162
H           1.87050645713518   -0.31162090822676    0.05417579024389
H          -0.14906751081491    0.26978582370027    2.74746689408211
O           0.75561888782745    1.61670423772804   -1.62088167832478
H           0.62147833305996    0.84300170484537   -2.22891226036934
H           0.04643787737180    1.48853524499510   -0.95413179423006
O          -2.19692214603671   -0.97655364400078   -1.42135160531948
H          -1.87253426102611   -0.25489616951047   -0.86149765546752
H          -2.34808270134944   -1.70685891092133   -0.81610533564858
O           0.29862246005237   -0.79283562954014   -2.59050686389454
H           0.54958569984158   -1.19502217337425   -1.74304772687566
H          -0.66863235003606   -0.87894396853493   -2.60194442653382
O          -1.86416681624295    0.65574393511113    2.94596102570563
H          -2.05582272484791   -0.22879177582440    2.59281164504902
H          -2.02641578987507    1.25990562677897    2.21488808978380
N           2.48201827502091    0.56042583547419   -0.07982321830915
H           1.85481109425844    1.15071382510998   -0.79676573737282
H           3.39339742563522    0.32277968480473   -0.45806299277131
H           2.56543005422862    1.02927036168718    0.81746850349592
