    23
        -45.35579856  Gyration_radius:  2.5449468704 Dipole_moment: 8.946
 S          -0.71013106579997    0.95954246068621    0.59977780040662
O          -0.99946245142230    1.31327925172117   -0.76154726289772
O           0.59142327441623    1.34904391737785    1.06484188943874
O          -0.88450708482529   -0.57028235181362    0.78161651692650
O          -1.79088561779417    1.51472597389107    1.53030482269467
H          -2.30211725600800    0.74635193873463    1.99067533930119
H          -0.18810928542485   -1.08000934800966    0.18497022682685
O           2.96393660669009    0.56651091737386   -2.59263483210198
H           3.03968374252866    0.44854939212935   -1.63829550864933
H           2.03152711117528    0.42597684341184   -2.79583905548084
O           0.82085191751824   -1.67020341673453   -0.68235185449107
H           0.63443591810433   -1.27632583564943   -1.55829998163813
H           1.65510874047986   -1.25352527558844   -0.38645625938486
O           2.70741377617836    0.01884081817605    0.22539975325927
H           3.41544551510176    0.07992334392943    0.86823490363609
H           1.99012962089378    0.61235480457508    0.53899011920522
O           0.14846075887232   -0.03853640593601   -2.71247714057565
H          -0.39224948128833   -0.00573831466217   -3.50300228319738
H          -0.27215641988103    0.56161282965558   -2.05829274279776
N          -3.02118298203152   -0.45580712256129    2.64038013260461
H          -4.00162889840398   -0.52280972669638    2.40255501115403
H          -2.91915886948671   -0.49866084198457    3.64536916786338
H          -2.51682754959277   -1.22481385202620    2.21608121789684
