    23
        -45.35942573  Gyration_radius:  2.41779776757 Dipole_moment: 2.230
 S          -0.27686209065331    0.54482994419521   -1.24885472010136
O          -1.44045848520099   -0.23545459541976   -0.95747156772779
O           0.95575466713002   -0.19855618799975   -1.35838827616794
O          -0.11637262091498    1.67458489237869   -0.24372096579411
O          -0.52505647135437    1.29701383877961   -2.58008176766321
H           0.35971281977235    1.64791186982697   -2.84540582171461
H           0.45778050749526    1.42230006224474    0.61516159797447
O           1.15118140370773    1.10705570862783    1.81108598270114
H           0.68045459357489    0.27579567433927    2.18028478700007
H           0.97017390645556    1.81321194303003    2.43643530263421
O           2.04053928732104    1.64804710127770   -2.89625870071049
H           1.98859185522787    0.91886766550198   -2.24901129488437
H           2.45609293676030    1.29081427090489   -3.68484778794474
O          -0.19354127427881   -0.90384078466179    2.61615473669983
H          -0.00741632016663   -1.57352510726795    1.91379328137678
H          -1.08783034270918   -0.57262676153524    2.41018299492317
O          -2.49026127060158    0.05063705427882    1.50892453810757
H          -2.15181607289441    0.00603804005683    0.59503779684554
H          -3.35771922291901   -0.35725621793499    1.49344934782199
N           0.14126797740744   -2.39343179893367    0.39240486876663
H           0.57995376661949   -3.29874129888125    0.27590315109809
H           0.65311939874947   -1.72212190421785   -0.17397305671811
H          -0.78728893851817   -2.44155338858155   -0.01080441650879
