    23
        -45.35489393  Gyration_radius:  2.402632708 Dipole_moment: 3.165
 S           0.59200096215554    1.00136356339999    0.08242618875163
O           1.41909185848890    0.11247802694929   -0.66372242912777
O          -0.29010330169729    0.39196273891797    1.04143992374622
O          -0.25482839901014    1.86188958419766   -0.88451181532298
O           1.46868360384224    2.05955628538125    0.78894165581318
H           0.83504450829981    2.73321148996637    1.13662227952431
H          -0.48567559198112    1.22137763551430   -1.70482679082809
O          -0.52963163276788    3.70395918549886    1.11624161407315
H          -0.38444318052505    4.60032781592042    0.80141805310153
H          -0.91417948277677    3.20348904343649    0.38362847249150
O          -0.66712686059128    0.14184015173012   -2.61284031998423
H          -1.13789350296619   -0.50634006397835   -1.99091211392446
H           0.22811161801770   -0.20134828599289   -2.70510866667837
O           0.33417775168291   -1.89427077834032    2.45588167307261
H           0.16984433703491   -1.04977387960437    2.00682163640040
H          -0.40153973782933   -2.02081178380006    3.05793794188268
O          -1.54359058078712   -1.35774468139719   -0.72516296862442
H          -0.83340737784175   -2.05026769875181   -0.65719725101569
H          -1.37128309012064   -0.77306023503313    0.02570188851802
N           0.68613927568831   -2.76930050299951   -0.34897756069109
H           1.27684374257323   -1.97119295042619   -0.56472644159399
H           1.13678110720085   -3.60273662858201   -0.70536704728569
H           0.66698395398194   -2.83460803192140    0.66629206781506
