    23
        -45.36777595  Gyration_radius:  2.25208279765 Dipole_moment: 4.641
 S          -0.83546611826431    0.87757773587101    1.23961451672014
O          -1.04840631634785    0.72556539386257   -0.21619828369844
O          -1.48443494808580    2.02842828097543    1.77720224049671
O           0.74958004550800    1.09906114747333    1.37005942469735
O          -1.07127327556764   -0.38152515500008    1.92305780021037
H          -0.46692194115990   -1.62735741316918    1.40212105868283
H           0.84459174704863    1.96385114263326    0.92949695707277
O          -0.00837730181121   -2.37280609139034    0.85110348453465
H          -0.52812447320742   -2.26779594068945   -0.12846661403064
H           0.93883234724702   -2.01043668868808    0.70067007651023
O           1.10828851582341    0.22761780239079   -1.67738345464341
H           0.29203812630935    0.43336398691698   -1.16963670281151
H           1.49506224279698    1.07597509019675   -1.90221711794337
O           0.09536232394188    3.14918367256082   -0.16824482241314
H          -0.40703360800387    3.66912457077576    0.46679828201385
H          -0.51297853850487    2.43740835786777   -0.42977818399858
O           2.15161904347480   -1.09506710980733    0.41030588774881
H           1.98503851949073   -0.36737821249622    1.02698441041760
H           1.95068839180316   -0.71598411643827   -0.47307154381643
N          -1.19680373620966   -1.84234252060280   -1.29119003251894
H          -2.05310522481167   -2.32246307253734   -1.53259848418586
H          -0.58794177638484   -1.80476909441361   -2.09961286952623
H          -1.41023404508076   -0.87923177628410   -1.00901600951465
