    23
        -45.37056011  Gyration_radius:  2.2680113155 Dipole_moment: 5.820
 S          -1.19805886733325    0.66338546338153   -0.99785796875683
O          -0.45027080014088   -0.62425909625000   -1.13016568954265
O          -1.84444772266779    1.03229938875101   -2.21663469273378
O          -0.03694713735096    1.72766723891361   -0.71608512397835
O          -1.99450234605762    0.63991172056824    0.20180285643989
H          -1.64194992522538    0.41226293780650    1.86613511515985
H           0.43753580612869    1.70273660556933   -1.56830173469996
O           1.13999700876264    1.19625866701686    1.76873792506260
H           0.72660544760378    1.69950238449614    1.05389114999251
H           1.62098534696998    0.48074830156395    1.31914172591825
O           1.95685116513721   -0.78892936412229    0.01530381937899
H           2.67753494953779   -0.55089560243977   -0.57008329280282
H           1.13379372350231   -0.68025769051266   -0.50724115994387
O          -1.09876831339213    0.04050634984758    2.59582096273111
H          -0.74291946287654   -1.16645050747387    1.87465126076208
H          -0.25705384032899    0.55464766032764    2.54804661822789
O           0.71692298255748    0.81574167365478   -3.08050807451116
H          -0.03582163233673    1.17068377789069   -3.56617145126466
H           0.35926977087469    0.02923621685822   -2.63845600402320
N          -0.44145867341320   -1.94400329786492    1.13150774147512
H           0.55584996136370   -2.13713933892781    1.21587392370162
H          -0.59055184266847   -1.48270991001280    0.18361549312128
H          -0.99259560864428   -2.79094356904584    1.21697660028770
