    23
        -45.36540647  Gyration_radius:  2.32715879501 Dipole_moment: 2.696
 S           1.24102626255808    0.62098815591763   -0.55728461711095
O           1.78983191454618    0.34409976917182   -1.83960968873369
O           1.19361947598037   -0.49438319488685    0.36138227232614
O          -0.20164479128989    1.16790405472119   -0.72322439255503
O           2.00778492014792    1.78606640430869    0.07493226312351
H           1.53782521180993    2.07997239586004    0.92649590482056
H          -0.87345558123525    0.68713172476604   -0.14543041949922
O          -0.79434135935572   -2.26353999223492   -0.34540224576751
H           0.07369451239088   -2.01592584427465    0.00464144808194
H          -0.73579891431614   -2.04746774260146   -1.31049920915147
O           0.82547259352183    2.40297842123670    2.24570244817811
H           0.42215756248572    1.53206985269078    2.52205611417588
H           1.46787650298027    2.63256253695378    2.92049889817766
O          -1.95072810182678   -0.17855802617973    0.60152540524432
H          -2.81402183930643   -0.06276729634346    0.20083333042868
H          -1.60152959207667   -1.07606696969667    0.28730520050207
O          -0.07185280798026   -0.00467478575508    2.66778486876645
H           0.49108092135056   -0.36588426560235    1.95656934020273
H          -0.97157915759660   -0.07449928819563    2.32463885444027
N          -0.36513707986612   -1.30003315231007   -2.81946587596764
H          -0.08713881267966   -1.95731532542448   -3.53854501659818
H           0.45629814573827   -0.74492165635831   -2.58146333632656
H          -1.03943994599114   -0.66773578576207   -3.23344153675845
