    23
        -45.36505803  Gyration_radius:  2.39416326205 Dipole_moment: 5.721
 S           0.03055556979867    0.68155203978870    1.44795150586535
O          -0.05888815754942    1.33112376178844    0.15164204974438
O           1.36434580069724    0.35866061380316    1.84760946608284
O          -0.86944981880740   -0.55444241364123    1.42993023747736
O          -0.64301678836253    1.57469721844306    2.49722700460185
H          -1.56294884966169    1.74830404833667    2.08875016631023
H          -0.47535346464749   -1.35945045385925    0.83620353854815
O          -0.07093545618888   -1.43578181436399   -2.53828114811270
H           0.42542018056335   -2.01615084859276   -3.11860873926386
H           0.49687539772395   -0.65991336533365   -2.36976298148392
O           0.10718098886626   -2.32337432724706   -0.00605308707321
H          -0.13345414873385   -2.07845584084091   -0.92816426493371
H           1.07983566490484   -2.13282200703780    0.06502253657696
O           2.53992106950556   -1.31639830929584    0.07256237604600
H           2.36356321627955   -0.76971076860253    0.85714480765972
H           2.48059424520980   -0.70430537387342   -0.67573776535635
O           1.58316493865392    0.59069488154544   -1.74895514195887
H           1.90180886036956    1.38002475465571   -2.18982952635526
H           0.98142563604028    0.90341938831828   -1.03076647656976
N          -2.74909188150436    1.73874127309699    1.04317789939149
H          -2.13372590995822    1.72451301705957    0.23585975658659
H          -3.43627305705469    2.47316575767930    0.93495701659448
H          -3.22155403617197    0.84590877814981    1.09812073958431
