    23
        -45.35754959  Gyration_radius:  2.36300094693 Dipole_moment: 1.854
 S           0.65756527599799   -0.86282793672148    1.21220575258746
O          -0.31109540644366   -1.56279851213529    0.41292074717347
O           0.29978102934954   -0.68634431351062    2.58840616567071
O           0.90955123473608    0.54351729847196    0.57279241896810
O           2.01925458672673   -1.51881449676865    1.09939424637209
H           2.38101577045807   -1.40266695676246    0.12031279918447
H           0.34890911510965    1.20964774535410    1.02251232776529
O          -0.92098322019092    1.39765107427312   -2.12367438500269
H          -1.42175701980033    1.19570033692913   -1.29667990110017
H          -1.56984389206241    1.45617247344618   -2.82693446045763
O           2.76309735468179   -1.27101318425141   -1.27312552590757
H           3.04130612007129   -2.12649945817957   -1.60978847671075
H           1.87631795168086   -1.06766640505147   -1.71635796073571
O           0.36678545994785   -0.97466602659396   -2.13900889691545
H          -0.02848542793735   -1.30413944762633   -1.31407175746255
H           0.03793233425102   -0.05308571308335   -2.22342796017849
O          -0.57692394769785    1.78257893080622    2.38807236055762
H          -0.39625425233736    0.89157021870956    2.74942350214059
H          -0.13084030701142    2.41075591424100    2.96073518934897
N          -2.25979154867478    0.60471013518747    0.11095503159692
H          -2.06723890567051    1.20658781445368    0.90337615758088
H          -1.76628152304095   -0.27063156841417    0.26739488116038
H          -3.25202078219810    0.40226208704801    0.11456776435227
