    23
        -45.35754959  Gyration_radius:  2.36302961618 Dipole_moment: 1.854
 S           0.47074855533201    0.78784773498279   -1.34311871397566
O          -0.76686012443323    1.23843157528234   -0.76653899970358
O           0.36383657605996    0.23271540905508   -2.65974068504997
O           1.10217573546884   -0.28470311229493   -0.39385704635659
O           1.50711053397359    1.89353932056011   -1.31759466396353
H           1.76465873829210    2.10571568252503   -0.32178360902695
H           0.85810469058355   -1.18020820809096   -0.70819030293943
O          -0.24658043453235    1.43584556001909    1.88072824383879
H          -0.25319830651895    0.49261109612071    2.15431817418477
H          -0.62615022049262    1.43681362272265    0.98560405319416
O          -0.64739707961652   -1.19409899817274    2.33820740311514
H          -1.31920971066411   -1.34176636103024    3.00599534216464
H          -1.08223599144187   -1.34760424248260    1.46480909857637
O           1.99593561094477    2.39127005014678    1.08177344253388
H           1.92595129845017    3.33768351434216    1.23041297064546
H           1.18273027951087    1.97577523449938    1.51798970737643
O           0.35315943401591   -2.29767102744623   -1.95175824485441
H           0.26548714253236   -1.48871159083753   -2.49491254960952
H           1.05102742897391   -2.82451754281734   -2.34793661215235
N          -1.89227569032972   -1.37770352435748   -0.07660382562066
H          -1.70755994656490   -0.43217190543321   -0.40233454916808
H          -2.88637963348953   -1.54597670891031   -0.17126124547255
H          -1.41307888602816   -2.01311555830273   -0.70420739767943
