    23
        -45.36616265  Gyration_radius:  2.32857057542 Dipole_moment: 3.099
 S          -1.22174918110830   -0.52713260607428    0.93497558598860
O          -1.40060645511023    0.35177622648356   -0.20785943156873
O          -1.80291856832428   -0.04568607984015    2.16269268997391
O           0.17761962419564   -0.92639156026960    1.07154089007863
O          -2.02030847209643   -1.87099185712506    0.59559239654041
H          -2.60081273882853   -1.96495409848918    1.34494706309031
H           1.30311596531986   -0.15766905705479    0.46299111216172
O           1.94192513490860    0.49326040152118   -0.01844810397970
H           1.34996963308362    1.38675516512767   -0.05987691869979
H           2.01577236927760    0.14972378225066   -0.99529969359863
O          -0.06557517796750    1.92296873557071    2.55584679962908
H          -0.79584504452070    1.27342131701400    2.50604859266342
H           0.62526692391116    1.50290272758589    3.07171991164686
O           0.29576856914717    2.35712522884825   -0.03742547762769
H           0.19582174361761    2.51170969793525    0.92743250992768
H          -0.46068236846256    1.76520384598952   -0.25122474101915
O           1.84502057820385   -0.33283320828702   -2.40928277459278
H           1.06546417062510   -0.95862502244635   -2.26234170713503
H           1.52687159897949    0.37205008913753   -2.97719952438973
N          -0.26591088630073   -1.72986025023774   -1.74426156458665
H          -0.85256741347959   -0.97926392289161   -1.38320085453565
H          -0.02002130370560   -2.28862265720818   -0.93513380258913
H          -0.83561871987175   -2.30486689797281   -2.35223296800026
