    23
        -45.37088238  Gyration_radius:  2.38541077332 Dipole_moment: 4.168
 S           1.24746673529286   -0.59919563737105    1.09339198899410
O           1.00211692854645   -0.30426863423652    2.48746043954063
O           2.58048364123482   -1.03373998368481    0.77621391707719
O           1.09735161485424    0.84461668727455    0.34483406370626
O           0.19240701753424   -1.40518591473917    0.49526668075690
H          -0.18088030909624    1.87336998739513   -0.74491918458624
H           1.91446193056201    1.26925981051064    0.58864298432267
O          -0.97277216588755    1.77540554466643   -1.28889369084806
H          -1.71655213572489    0.79389584949172   -0.29316486510724
H          -0.68790326236585    1.17218639046352   -2.01304461780050
O          -1.31319726282294    0.82022770435730    2.89556477496153
H          -0.40055479689803    0.44939117480821    2.78194650076970
H          -1.61374897795058    0.50275174432282    3.74859712719269
O           0.07660771154786   -0.00114271221743   -2.97391541314508
H           0.53213210361846    0.25513936896344   -3.77702747806310
H           0.71683285056545   -0.55269413911083   -2.46805274740662
O           1.84273026935118   -1.58830466698794   -1.71720444267993
H           2.23440383763089   -1.34762786265312   -0.85449289240178
H           1.27314619127093   -2.33422125631116   -1.51219410238569
N          -1.94682343379530    0.03825335047799    0.42392724940640
H          -1.12617099755341   -0.64554353945278    0.39720780665511
H          -2.82665774528889   -0.42218728470190    0.22045340560030
H          -1.92487974466942    0.43961400870066    1.38940249529194
