    23
        -45.37284385  Gyration_radius:  2.41144325912 Dipole_moment: 4.383
 S          -0.04485635971193    0.26199139734335    1.02687543944763
O           0.59598775430693   -1.02809172355580    0.79405589899512
O          -1.49571712799646    0.15301231060509    1.09794065955563
O           0.35860527901474    1.23601502290119   -0.00273518305452
O           0.42464495475508    0.80043494047654    2.40045556985317
H           1.42371655426850    0.81783454476558    2.41658131646384
H          -0.88758495284808    1.50764703736893   -0.92736962717602
O          -1.74518363461569   -0.90639803714555   -2.63801634280766
H          -0.94906628879785   -1.06035514200881   -3.14975141518294
H          -1.67960687519187   -1.51047200023138   -1.85071584151196
O          -1.42879662424930   -2.24888219389306   -0.39511502243768
H          -0.59578867523122   -1.92917343678979    0.01310611037550
H          -2.10664559802766   -1.98439742132956    0.23292499819867
O           3.02090884159566    0.65735708093381    2.30419045598976
H           3.12532261562855    0.48141225485109    1.33475858452354
H           3.27920360189850   -0.15094504017358    2.75233142302023
O           2.78235174158412    0.03727298238197   -0.25504097994559
H           2.12488873311982   -0.62996076343021    0.01951899183478
H           2.22655722683969    0.78978227146936   -0.49932684198725
N          -1.90065850624766    1.27625202999824   -1.15937888633427
H          -2.14186644415127    0.84667693815099   -0.22479874374668
H          -1.91710373559475    0.50502234627337   -1.88413105597602
H          -2.46931247034629    2.07796458103141   -1.40635950809962
