    23
        -45.37284385  Gyration_radius:  2.41195093107 Dipole_moment: 4.380
 S           0.71085153055177   -0.28185286188111   -0.73640965663196
O           0.54046268052067   -1.28683383976566    0.30772093971930
O           1.66545771933789    0.75133550318582   -0.35850322729859
O          -0.58747161387465    0.31185776314829   -1.10263029283706
O           1.28741126112952   -0.97638694106096   -1.99427444278288
H           0.69388808254842   -1.74147562392501   -2.24186727986295
H          -0.60832775512902    1.79205618527014   -0.56945017654558
O          -0.63667787834275    2.04364408697095    2.50286989887622
H          -1.44676066190197    1.58005529266793    2.72197562805516
H           0.08899356995211    1.36814222231363    2.58041533823167
O           1.23924647771617    0.19964501569233    2.38276389762805
H           2.03201781119299    0.57647243841774    1.99107245598788
H           0.94596096733465   -0.46367988182492    1.72202401033497
O          -1.86859848177509   -2.01133370548699   -0.52285686525465
H          -1.94171317190742   -1.12176132320000   -0.89477547741624
H          -1.07089044117022   -1.94136456009980    0.03530139516070
O          -0.29938051130469   -2.99575924985313   -2.40976302110876
H          -1.02827742892460   -2.74468021401818   -1.78739885498450
H           0.12036588964626   -3.77149046356963   -2.03150467460611
N          -0.10580554494061    2.56225002039833   -0.03199550370298
H          -0.40162487696942    2.52010323350318    0.98319747511922
H          -0.19125067125452    3.48527389685565   -0.44165836855052
H           0.86212303755241    2.14578299626255   -0.10425320752824
