    23
        -45.35698648  Gyration_radius:  2.4883661112 Dipole_moment: 6.651
 S           0.21716959678650   -2.18580865674812   -0.13057997639741
O          -0.78011681254639   -3.01937827792015   -0.70287972189084
O          -0.27968461312773   -1.14369067891090    0.74281124579549
O           1.05033362412650   -1.51048828323543   -1.27156945202287
O           1.29648121108432   -2.97405705143157    0.60866227399234
H           1.82296588996829   -2.25821490253837    1.10951635323135
H           0.37056404091182   -1.11822326148598   -1.90344816900051
O          -0.52236234593428    1.21584567235167   -0.40826279413493
H          -0.50262074764489    0.40367605564913    0.13772811246095
H          -1.14483907140271    1.82932425278824    0.04023640352208
O           2.22925023466930    0.82772475480729   -0.21908675273797
H           1.32700995768249    1.18831291427278   -0.28109550866999
H           2.29187413803003    0.18521203711391   -0.93329005461511
O           2.27329598673557   -0.94082763211652    1.78739413159816
H           1.43971609862094   -0.71341087986000    2.21140376446105
H           2.40182545149023   -0.25001020275591    1.09008431524709
O          -0.97229306791679   -0.47266556828298   -2.42369465976174
H          -0.95738451582790    0.30162271046312   -1.81490654611232
H          -1.61582343357021   -1.10270973798208   -2.08670547172860
N          -2.31034955251508    2.79045871483357    0.96512091916240
H          -3.02124630333118    3.20268558244906    0.37390617638886
H          -1.84154357244005    3.53982611706718    1.45867962577504
H          -2.77222218385088    2.20479630146334    1.64997579545072
