    23
        -45.37882871  Gyration_radius:  2.32747693342 Dipole_moment: 3.290
 S          -0.56855989294987    1.47378983107590    1.05889261232121
O          -1.25068933807867    1.62756904756603   -0.21489204080928
O           0.86837107581394    1.30666938391629    0.92669306481125
O          -1.17745484286167    0.43409526957909    1.88091933147147
O          -0.76127255623930    2.83935915545439    1.84345336854174
H          -1.70518245847169    2.96360851555472    1.87304977510886
H           0.17550054440972   -0.94403670152125    2.32024539653388
O          -2.15190524104906   -0.87426015007748   -0.16520307879369
H          -1.99150502488059   -0.57035443506659    0.75331062025947
H          -2.08820021998315   -0.03608426855124   -0.64966454481159
O           0.98234327857169    1.64177131954411   -1.69131948634947
H           0.02743070453715    1.78212936212101   -1.60230689415389
H           1.26243943163365    1.62671472060957   -0.75750526224474
O           1.51086765246570   -0.83425947290344   -2.35010429743735
H           1.27932738802173    0.12471226905754   -2.19894896067665
H           2.46834665956580   -0.86405901055565   -2.38175978067698
O           1.01918712260043   -1.12224576939517    1.87845559096108
H           0.60274609457056   -1.81147819673035    0.50581254039009
H           1.26603762138192   -0.22406426082261    1.57076603787636
N           0.17319442730580   -2.09462399620718   -0.42772118388674
H           0.14767593669925   -3.10328371002348   -0.53050449458311
H           0.72387511351223   -1.65219214881951   -1.21310951978544
H          -0.81257347657838   -1.68947674375772   -0.42855880408979
