    23
        -45.37882875  Gyration_radius:  2.32739377023 Dipole_moment: 3.283
 S          -0.18074005263419    1.18136635978275   -1.47886545232153
O          -0.07649497220971    2.03924261014801   -0.31068264271072
O          -1.20639312688690    0.16011047907316   -1.35446397752731
O           1.11224046759851    0.62872101056686   -1.86615514307977
O          -0.65437660775825    2.10588256221923   -2.67816180576571
H          -0.00680909685830    2.80366494234822   -2.71067033225314
H           1.02003429879638   -1.35121084285186   -1.85676050645918
O           0.37278967273612   -1.92053448922808   -1.41450253247837
H           0.75360271660480   -1.82142655020645    0.12734216609149
H          -0.42946893518955   -1.35670951004040   -1.44621316295253
O          -2.15640378278243    0.95424136386180    0.97899074215859
H          -2.12354995620173    0.53874714682873    0.09748946282774
H          -1.49174766769804    1.65346125379547    0.88545759770588
O           2.11706003929708    0.80237334549660    0.54391775967906
H           1.44414700404998    1.48257247837434    0.70478043563843
H           2.04697205471883    0.69869092926834   -0.42876256994119
O          -1.24530869808176   -1.02249170163300    2.43035722354593
H          -1.96342523633624   -1.65724948068445    2.43048601982920
H          -1.60423106409461   -0.21461436354953    1.96710718509692
N           1.01275818133421   -1.52481547634376    1.11787534583186
H           0.13036031759650   -1.37451739344720    1.67874830519982
H           1.51957954747367   -0.59259184882134    1.01856566876943
H           1.60940489652110   -2.21291282495899    1.56412022312105
