    23
        -45.37605281  Gyration_radius:  2.2483978545 Dipole_moment: 5.783
 S          -0.03359253287169    0.26710605754981   -1.28257830849305
O          -0.43042479539936   -0.90370305774076   -2.04213993102826
O           0.91847995228281    1.13170656820611   -1.94044889195726
O           0.73639290484773   -0.32792714917694   -0.00046360719077
O          -1.16791576875730    0.98461215372277   -0.71296839135544
H          -1.53856435644989    0.40329391997802    0.63493669551398
H           1.48721294349267   -0.80206407017325   -0.41081653145454
O           0.85952393001312    2.60022705331189    0.35676656673751
H          -0.01767251691074    2.96912753468554    0.22526528793648
H           1.04892621067898    2.13375148606357   -0.47701147067579
O           2.31616318720865   -1.21615272417673   -1.92902538623291
H           2.29727649603965   -0.29088778191861   -2.21253889484947
H           1.52490771491054   -1.60281166898305   -2.32519701572904
O           0.68611139046119    0.91728410307082    2.47575733227489
H           1.38675412392267    0.28845407564614    2.28663888164997
H           0.77730896448637    1.60237399298808    1.77219116671008
O          -1.47987323779148   -2.33344437130009   -0.06455712596987
H          -2.20903758366972   -2.82940210468935   -0.44118228507270
H          -1.06897966136462   -1.85281835416183   -0.81881003786156
N          -1.55154704669509   -0.15968428749191    1.54751853436240
H          -1.48205700798556   -1.14139536862140    1.21372062571721
H          -2.38876810904564    0.00109941236842    2.09660663853673
H          -0.67062518154876    0.16125457043555    2.04833615847228
