    23
        -45.37480719  Gyration_radius:  2.29917526729 Dipole_moment: 5.329
 S          -0.58901666696611   -0.82891379427678    1.09471648039284
O           0.37125168174827   -1.29199921803039    0.07259732516787
O          -1.93521931611648   -0.84314844120285    0.60005321555206
O          -0.15750701579083    0.48130671382277    1.59109350006138
O          -0.49011589315733   -1.83711830283185    2.28181583113364
H           0.40781877044496   -1.67541207173129    2.62753297600407
H          -0.19779139327671    1.86358664870496    0.56152792698638
O          -0.15138428174062    2.34038468492066   -0.29453152805474
H           0.84282625436888    1.47877594622134   -0.93678623495035
H          -0.98086809094654    2.05528352442564   -0.75887784533985
O           1.76494611493976   -0.59592984288811    2.96855152459735
H           1.78889021004505   -0.26701886424888    3.86989026965027
H           1.17626425465559    0.00943556644190    2.46747286778503
O          -2.10168200860857    0.96335340617427   -1.38294991785506
H          -1.66338676746707    0.37288581273584   -2.01625677643152
H          -2.27234692184080    0.39130000915882   -0.61064312170776
O          -0.55456822212753   -1.10013263801317   -2.43132403188448
H          -1.14767084073280   -1.79496729340891   -2.72099576251959
H          -0.31464929576342   -1.32174832939145   -1.50688455122677
N           1.44830514894218    0.62333862297607   -1.30417340456844
H           1.14796372980095    0.36270966368832   -2.24291531130825
H           1.16137821028935   -0.18269515927032   -0.66289045244506
H           2.44656232931434    0.79672337599110   -1.26602296900549
