    23
        -45.36002413  Gyration_radius:  2.33176945507 Dipole_moment: 5.538
 S           0.62688134698163    0.98728851761938   -1.12742835795776
O           1.15904544797454   -0.35229021396892   -1.07021503136141
O           1.50738633286591    2.01127083803892   -0.67572529206470
O          -0.69263767951991    1.01685620367622   -0.27496588863499
O           0.08097279145743    1.29944417520104   -2.51278501538921
H          -0.74266906223949    0.69497339962862   -2.66032989592738
H          -0.45310698748798    0.89597080997918    0.68702648534957
O           0.06886348893869    0.67423775275851    2.18408623959576
H           1.04105311680031    0.45067441385802    1.97224613068424
H           0.08022664479694    1.51800432593609    2.64040857127257
O          -1.61136902181496   -1.50287083110091    1.54432207715099
H          -2.48528304230839   -1.15311900214774    1.72487321148535
H          -0.97722474108133   -0.86527918058932    1.89961839578552
O          -1.96777742282729   -0.17048326581212   -2.59681042835775
H          -2.55622146798782    0.29051766638352   -1.99377393494382
H          -1.65125112056616   -0.98430849052570   -2.10423906497021
O          -0.93923395621499   -2.03157288050513   -1.10069352740988
H          -0.05569192249929   -1.62379049896213   -1.11397947259961
H          -1.22885393007939   -1.98685811178900   -0.17277937160878
N           2.48868140934543    0.22699762446645    1.36551058187551
H           2.79667675830700    1.13532718906852    1.03538410446730
H           2.24739142019723   -0.29593373596266    0.52594666066356
H           3.26414159695700   -0.23505669525817    1.82430283289442
