    23
        -45.36002406  Gyration_radius:  2.33119216145 Dipole_moment: 5.506
 S          -0.48071760937751    1.46741035402423    0.49364542018276
O          -0.20766221181397    1.81733068672975    1.84666165245292
O          -1.51222363720766    0.47586525301520    0.30979343494869
O           0.83073116543773    0.92747451882030   -0.18259661392468
O          -0.75298100188208    2.70225715447695   -0.35230888216139
H          -0.66180244774613    2.42159939983301   -1.34160843178306
H           1.15907482381309    0.14404826242803    0.34273696888644
O          -0.34794823767416    1.82510276799171   -2.68272641955708
H          -0.70953250374202    0.89261204974439   -2.61258470014722
H           0.60844716355652    1.73756465170899   -2.68950836528746
O          -1.15290694972710   -0.58492556780289   -2.13286444006828
H          -1.48209300997662   -0.32770583471300   -1.25381720388302
H          -0.42372172006291   -1.20645060258866   -1.96258838715602
O           1.55736089353233   -1.10503529481416    1.26082935658066
H           0.71385338544921   -1.14775857442319    1.83221560118051
H           2.26871781463722   -0.84692501333688    1.85047988048391
O           1.05354908068575   -2.07907773618934   -1.34166913911196
H           1.20560864945030   -1.92580897840311   -0.39926451416255
H           1.88378661736693   -1.90379551320928   -1.78732509713819
N          -0.64654105145813   -0.92680876101441    2.61662184801956
H          -1.25577600149466   -0.67427379181147    1.84103920152159
H          -0.52559962506048   -0.07308995241163    3.15083127275491
H          -1.12162357669134   -1.60960945806916    3.19400755736028
