    23
        -45.36140610  Gyration_radius:  2.29563477635 Dipole_moment: 3.835
 S           0.66514660871746    1.28353112030707   -1.00252292356013
O           1.34792135695667    0.30583043720846   -0.18421983289791
O           1.07797275651477    2.63052504364439   -0.81452220945915
O          -0.86203656024006    1.13561694915400   -0.72937073639763
O           0.75460559750927    0.88426464061621   -2.47570045969615
H           0.54167288824616   -0.10348672810451   -2.52739476605047
H          -1.02497347355648    1.12769913442941    0.29255157109245
O           1.32781312683192    1.99115535729979    1.91805392439359
H           1.36490698763629    2.81503765406956    1.42146902549246
H           1.62295867280211    1.31732129287388    1.28331712488025
O           0.04853465424278   -1.57673699745357   -2.53432803842414
H          -0.65351562969575   -1.65375065082426   -1.83691328106274
H          -0.37437977305955   -1.78008717448076   -3.37174532601813
O          -1.09385698766376    0.92170050853012    1.76596504962315
H          -0.27862044766267    1.40300409760283    2.04466391277119
H          -0.89411285461752   -0.02319227085091    1.87534885876509
O          -1.80632741245081   -1.49541086908877   -0.65049290696370
H          -1.36031372915334   -1.63860730260398    0.19892994809563
H          -1.93332188934994   -0.54103711301512   -0.72362930358283
N           0.10501290844795   -1.66170249214450    1.50111861865485
H           0.21258915127749   -2.63419466231364    1.23187514744358
H           0.49899055619043   -1.58788456902892    2.43365200352279
H           0.71333349207055   -1.11959539583830    0.88389457938573
