    23
        -45.36754973  Gyration_radius:  2.30778069977 Dipole_moment: 3.025
 S          -0.29694812937474    1.83856661033914    0.18656114634577
O           0.25680559228526    1.27593695681664    1.40908000360727
O          -1.18164472461988    0.86249037256474   -0.46403001968729
O           0.66657161040002    2.40411930698608   -0.71461831694058
O          -1.24276147117731    3.03929325472669    0.62788110121967
H          -0.85841582023451    3.77408558454754    0.15986255661173
H           2.06479556649711    0.76530562787768   -0.83127871427456
O           0.73626642853952   -1.96635625619568   -1.28925691886677
H          -0.40508549577274   -1.86986764365097   -0.41191962527128
H           0.42277574899410   -1.46807950297119   -2.07089156132459
O          -1.19572430925833   -1.57465104623047    0.23954716443730
H          -0.76393349789652   -1.53688104727971    1.23148931448820
H          -1.32463785108275   -0.59701568146620   -0.00988903458580
O          -0.32055508873707   -0.05124201227228   -2.83303118506147
H          -1.03120094780740    0.05383170530003   -3.46664123843183
H          -0.59766373804075    0.42603417667463   -2.02567112125278
O           2.03268201266379    0.06717805111858   -0.16715603411712
H           1.50701277569361    0.46714137588292    0.54779922577314
H           1.37619346660574   -1.34747836405426   -0.86386638753987
N          -0.09398312756427   -1.24813760670895    2.48625619930998
H           0.80360539343784   -1.70338791676637    2.59185939735620
H          -0.62316602332943   -1.36320128746749    3.34023955245858
H           0.06901162979785   -0.24768466776184    2.32767449575686
