    23
        -45.36903127  Gyration_radius:  2.27454103605 Dipole_moment: 6.648
 S           0.40179139944196    1.01992769088079    1.03577978680983
O           0.37752283352593    1.25662664348225   -0.39667910823078
O           1.58111202256056    1.46268717278992    1.70222265592670
O           0.19493092963642   -0.48793011608255    1.27743436678924
O          -0.83009125597198    1.65705719853751    1.67277742115815
H          -1.66631003568824    1.11378804454503    1.33054110176819
H           0.08863811888064   -1.05754161656329    0.39448584799338
O          -1.57098526591539    0.29360378126158   -1.85979516230597
H          -1.52354628772443    0.60163421633055   -2.76655682986717
H          -0.85859845838780    0.76822611324438   -1.36935061201528
O          -0.03199786447197   -1.75032917900824   -0.86477341231420
H          -0.70904947022056   -1.24603530266391   -1.35056353104814
H           0.83812179242259   -1.46422183113285   -1.26304774449177
O           3.16547885486331   -0.57475332742404    0.90327458083645
H           2.82343343726395   -1.28278845717556    1.45294251082063
H           2.77775609008451    0.24565413605959    1.25412821486297
O           2.12826580247246   -0.49112555449738   -1.59989221403614
H           1.68347533257029    0.34702433378910   -1.40260752121214
H           2.73323327096221   -0.62533227295452   -0.84546341800088
N          -2.73174218721157    0.21814153630813    0.77849862372249
H          -2.56981068992848   -0.71518269566189    1.13430651361477
H          -2.63020795432605    0.20446625864616   -0.23361751203127
H          -3.67142040483387    0.50640322730143    1.01595544119567
