    23
        -45.36755075  Gyration_radius:  2.30735607063 Dipole_moment: 2.983
 S          -0.41896915553617    1.26182222460439    1.31508296881649
O           0.32101030439446    0.00681654649176    1.50025730271479
O          -1.54891378123661    1.05085163099827    0.42187469094858
O           0.43035309053467    2.36615027389966    0.96906155327219
O          -1.02803434347385    1.60767518549084    2.74374694920005
H          -0.68113837418514    2.48079837794338    2.89894616099992
H           0.78731375021844    1.91339429059551   -1.11202893722359
O           0.21152337797623    1.28609623328126   -1.56414663990047
H          -0.56036704921890    1.23013494439128   -0.97379625281872
H           1.05829886376299   -0.17572967907512   -1.81857301093352
O          -0.07203512942576   -1.99762096921752   -0.00532264049728
H          -1.05089435832823   -1.78746192426284   -0.42056494027946
H           0.05190630328016   -1.27913641561927    0.70330039102863
O           2.80453281611483    0.01130781519536    0.48690709218745
H           3.41855762165741   -0.22773306978660    1.18200359713561
H           1.93774659486081    0.14775164177198    0.91838263683966
O           1.54025422254928   -1.01751644013670   -1.63845969558797
H           0.63013215444298   -1.70206180213139   -0.75002117982318
H           2.24840129038897   -0.74662819531531   -1.02096148458668
N          -2.31165093036430   -1.25628099031384   -0.89835596950773
H          -2.27129868085665   -0.35023738023227   -0.41815301339461
H          -3.15825681715727   -1.73616431023425   -0.62358204633021
H          -2.33847176041169   -1.08622800833200   -1.89559755227689
