    23
        -45.37862713  Gyration_radius:  2.28687655249 Dipole_moment: 3.446
 S          -1.43320381914463   -0.33753402984203   -1.09648590545668
O          -0.35631172277476    0.40561093059357   -1.72403856287096
O          -2.34017315584633    0.46378076342316   -0.30889892243115
O          -0.92899368947263   -1.49898986557555   -0.36179909926039
O          -2.29025482513424   -0.92893211455811   -2.29633266257821
H          -3.12530909689460   -1.12916813526030   -1.88562919117359
H          -0.33573391232021   -1.14789373618703    1.29219308810787
O           0.13490497671000   -0.75953588748708    2.04918650192842
H          -0.29065233664635    0.09901153639157    2.19659564460755
H           1.72048762076528   -0.39432127689151    1.50653319805874
O           1.01628188980287    2.00300533380745    0.02902662728796
H           0.35288147207734    2.11198044688029    0.72809322102714
H           0.53380083708277    1.59761722947694   -0.71071790787832
O          -1.17005280107958    1.66875853909609    1.70260654886815
H          -1.66290432966374    1.25045537246434    0.95736544697620
H          -1.79769997269738    2.23014279969535    2.16012271155591
O           2.41726315672139   -0.08136353866405    0.87930690889451
H           2.04789283361775   -0.83730734355932   -0.31119851325287
H           2.10541754454946    0.81945143275483    0.61704647112008
N           1.52569723140690   -1.30688280708078   -1.17544611499887
H           0.65391132170447   -1.74430708787038   -0.79449777209302
H           2.10189875018929   -1.94566364329513   -1.71106298817907
H           1.12085202704220   -0.53791493828737   -1.74196872830882
