    23
        -45.37862747  Gyration_radius:  2.28684759429 Dipole_moment: 3.439
 S          -0.73817026252017    1.55602883167647   -0.63529087190810
O           0.35749552030298    1.81252993642916   -1.54019889091322
O          -0.38292374113083    1.58815308254399    0.77130843592783
O          -1.47385487583379    0.33736706728059   -0.97664422925018
O          -1.76801020046853    2.74883769484159   -0.83643021274650
H          -1.73434746712802    2.90521505976231   -1.77478429463074
H          -0.45106171363102   -1.09793686685396   -1.30119181819724
O           0.23390740650328   -2.14281939400841    1.40508579242058
H          -0.95576440248945   -1.31157661453015    1.53583688620985
H           0.93721132154587   -1.46651266479631    1.56540404546370
O           0.21470396820654   -1.80253162337869   -1.22580537860689
H           1.06411332223711   -1.36487061696236   -1.38933098232708
H           0.25165711642289   -2.26758244529886    0.42480566101547
O           2.28504147389733    0.04714015539223   -1.35267623467192
H           1.59785357123432    0.74667865651795   -1.46091810590301
H           3.01274316439595    0.29238804793295   -1.92596604065734
O           1.77636835855259    0.01297493052437    1.37320885414984
H           1.10270497736645    0.70637500438899    1.27407983515204
H           2.20303195428367   -0.04451926867840    0.50402608873198
N          -1.74072145396079   -0.52544510216550    1.45422489525547
H          -1.28710992543880    0.38226576861888    1.66944215602122
H          -2.56882094193932   -0.70704750744638    2.00933088296457
H          -1.93604716038161   -0.40511215173562    0.43248354652262
