    23
        -45.37072201  Gyration_radius:  2.34917723645 Dipole_moment: 6.907
 S           0.46803138337578    0.81154372622122    1.25414007118107
O           0.98188767375379    1.47250731968361    2.41617828636535
O           0.14866246126395    1.71988688394929    0.14720785372877
O          -0.98322421079205    0.19604033463261    1.65707577032942
O           1.19174500717596   -0.35468802798896    0.79568630811334
H           1.40763188509525   -2.50421358325095    0.37861361840932
H          -1.42279982872592    1.01048121441251    1.98534189241760
O           2.06659370684293   -0.71333159419436   -1.72973401448077
H           1.96983527832791   -0.39964537347649   -0.81110626032782
H           1.38944673109743   -0.23712395639650   -2.22424685894557
O          -0.42738024518379    0.61693217882414   -2.07886635634660
H          -0.14295155236016    1.09232913827962   -1.23914485651621
H          -0.89790855561165    1.26695587556224   -2.60247981309402
O          -1.35277945832171    2.72080887613985    2.20800323476540
H          -1.07363071772852    2.92018894498350    1.30501262317394
H          -0.51259759786284    2.59462614763180    2.68085647110500
O           1.08059106682843   -2.82405977937256   -0.47148785844952
H          -0.25267897140543   -2.09283118065475   -0.50266747879604
H           1.56715877525174   -2.26236843885587   -1.12269164100220
N          -1.12251000407345   -1.43732932967058   -0.51445970948837
H          -1.12388646174873   -0.91556457272468    0.38385875374507
H          -1.98634563703514   -1.95425636318603   -0.64447835289251
H          -0.97289072818991   -0.72688843055987   -1.27061169300803
