    23
        -45.37910937  Gyration_radius:  2.28573073714 Dipole_moment: 4.319
 S          -0.65851616358150   -1.02683754513446    1.50309901484745
O          -0.34065832677948   -1.83107200560033    0.33092508037838
O          -1.43879572760988    0.15610310292333    1.14919911801612
O           0.50630976397685   -0.71803397469078    2.30043241159183
O          -1.61485842619250   -1.90122830066598    2.41566562978256
H          -1.00149704764375   -2.46163321690994    2.88011523888582
H           1.81707004501151    0.17575875644788    1.63702029937119
O          -1.98823594636501   -0.69519075320198   -1.36840399154925
H          -2.37256579723881   -0.19337551539895   -0.63873858525119
H          -1.40799730133444   -1.33139767490393   -0.89962618593893
O          -0.14219410003732    0.86574030832212   -2.36705932281902
H          -0.87710344509721    0.25721886961145   -2.06894722402072
H          -0.30168217234761    1.05054139717434   -3.29303739276905
O           1.75055170716183   -0.86465160809570   -1.08453207116302
H           1.07829250687700   -1.37538482420959   -0.59630335989352
H           1.25645594985294   -0.33009689118831   -1.72073682478001
O           2.30551328282365    0.70988296411348    0.97454356136142
H           2.39582216380462    0.10313068619196    0.20294213261616
H           1.16489040689874    1.54615410717767    0.48431105157194
N           0.20040072395427    1.91853656537071    0.12117777340355
H           0.13432413474034    1.74208490282331   -0.89788851387143
H           0.05804869156605    2.89770879334425    0.34145059692215
H          -0.52357492243027    1.30604183647320    0.59439155329808
