    23
        -45.35385930  Gyration_radius:  2.30659844443 Dipole_moment: 5.512
 S          -0.57352279790948   -0.49308653028031    0.71193443388927
O           0.81011282918755   -0.73811249756959    1.05347845902049
O          -1.37357803150882   -1.66138675370064    0.59040432943054
O          -0.59771846055004    0.29732217485100   -0.63996769279010
O          -1.14016787860249    0.52691685794536    1.68996621247517
H          -0.37794218097827    1.19992850816174    1.83065293233731
H          -0.43699694575658   -0.39557978150147   -1.35458317393827
O           0.05078036978975   -1.73470439455593   -2.02556130592967
H          -0.33635895123679   -2.38606001463877   -1.43162182230048
H           1.00786586195062   -1.68155373584076   -1.84036657696520
O           0.95137393079072    1.94169602773869    1.88390454187459
H           1.31544233877646    1.98785733541695    0.96576207696811
H           1.51912539779575    1.32517755863340    2.35485584310034
O           2.46302771136389   -1.05305949118405   -0.93267043105624
H           1.92576559612942   -0.98505856278427   -0.10979078307499
H           3.26118146003925   -1.53299908916674   -0.70442027458346
O           1.81497862052706    1.73546092709787   -0.64749816526347
H           2.25859624534956    0.89662634138578   -0.84134321140053
H           0.94451894616814    1.66627943392665   -1.05335704554303
N          -3.63600738453291    0.25145191505219    0.01790234962089
H          -3.21501563605798   -0.65797884299873    0.16924350181682
H          -3.62017531150466    0.72856242656809    0.91162306068288
H          -3.01528573917192    0.76230018743941   -0.59854725829472
