    23
        -45.36661665  Gyration_radius:  2.38879583431 Dipole_moment: 4.761
 S          -0.34389885479743    0.24853442270762    1.20846150926369
O          -0.52787672119564    1.39921976263636    0.31616753315242
O           0.13192330557592    0.61107191069524    2.51035702033521
O           0.75705150938590   -0.65031366200142    0.50839758453717
O          -1.54127965422740   -0.59435266715298    1.20506546109811
H          -1.97299182351811   -1.05367851176149   -0.03144833958490
H           1.61543837729319   -0.29411112113636    0.89643667866178
O           1.67609549650118    2.79303638344023    0.80869367732769
H           0.84040372270264    2.34808672220292    0.55569734851795
H           1.45259275978856    3.35348954166653    1.55450250592586
O          -1.58189445870674    0.94810220349947   -1.99052998967780
H          -2.25765933346908    1.61880365799644   -2.10624803232045
H          -1.10727793845753    1.18478724530965   -1.14580174029079
O           2.67569163422635    0.49129993149122    1.73559853947812
H           2.04740559953632    0.52202532324174    2.47511613529771
H           2.60103224768485    1.38065327263927    1.32532072229826
O          -2.16965794630337   -1.33829053386737   -1.05028145990066
H          -2.04170406255637   -0.45747746996642   -1.55026952132180
H          -1.32672808866871   -1.92906627557544   -1.29998203256287
N           0.01524284579032   -2.57155869576122   -1.48962235307328
H           0.44539833131853   -2.43664856593524   -2.39541545519128
H           0.08135214295372   -3.54950428898357   -1.23975469724392
H           0.53134090910564   -2.02410859535140   -0.80046110472070
