    23
        -45.36655849  Gyration_radius:  2.28280600746 Dipole_moment: 2.015
 S          -0.15091426931092    1.59553678693580   -0.64231244739891
O           0.28471048031974    1.53583575650089    0.73204552651074
O          -1.05459766254875    0.50216462048976   -0.98721176333942
O           0.94730175520687    1.67220905219770   -1.60379793242386
O          -0.96042140246858    2.93772497235337   -0.81297471169010
H          -0.95237116134722    3.05539138582670   -1.75719608530210
H           1.70047400931873    0.39784279674541   -1.73820996113155
O           2.02809862830465   -0.58010634229232   -1.65188717962059
H           2.00051662646516   -0.72609208623947   -0.57291762615873
H           1.24109491223432   -1.13461707971893   -2.00910223647703
O          -0.19475371618157   -1.67625422534746   -2.23237831423798
H          -0.43432327693700   -2.33549126061350   -1.57218503734676
H          -0.66502009339098   -0.85875738459289   -1.95923835121430
O          -0.81267595486722   -1.59966664410630    0.70144215210399
H          -1.06689764690936   -0.85902720502939    0.11930499723677
H          -1.06925378804199   -1.27936885922277    1.59272137171330
O           1.65033084232524   -0.73894154244340    0.78809000059426
H           0.80382823258606   -1.26700064871221    0.83622544807664
H           1.34625596005747    0.17929207181936    0.94682795980904
N          -1.18208510900802    0.04917181061095    2.82675178211528
H          -0.63892587628732   -0.02904446243888    3.67790156994779
H          -2.09297821704561    0.41240671444981    3.07874140989129
H          -0.72739326250004    0.74679176279865    2.23935944837716
