    23
        -45.37284946  Gyration_radius:  2.38955757652 Dipole_moment: 3.506
 S           0.45963932397583   -1.63893751581035    1.03347955166342
O          -0.76508100721335   -1.63476740470728    0.24865704757484
O           0.29516953873104   -0.90049806895867    2.28290776971461
O           1.61877759630844   -1.20231163541093    0.28642198726233
O           0.71840734352008   -3.15071273207239    1.42773787965596
H           1.62902834777740   -3.12475105278366    1.70327883181700
H           1.90770388818081    0.43746162969899   -0.04697574407574
O           0.86451416714048    1.27021708622613   -2.68755611185014
H           0.18879101520943    0.56349349828791   -2.56947075298863
H           1.51659518020406    0.90993334032156   -3.29039511853650
O          -2.39766835716777    0.42257766891235    0.33668837712581
H          -1.84788176944987   -0.39683728815807    0.30006829994367
H          -3.17184120951861    0.19447004795792    0.85346394768704
O          -0.94708103913076   -0.64782432201533   -2.24160213315617
H          -1.78260377971001   -0.20728854519391   -2.06509465793732
H          -0.74039652220563   -1.14119262340517   -1.42492170200080
O           1.79231556121326    1.40105938596085   -0.19598774973612
H           1.49431524645481    1.47668973189690   -1.13286918721179
H           0.62685672949062    1.61469078482479    0.72422004871303
N          -0.18229992043325    1.50868144147695    1.44906213232016
H          -1.09447040769891    1.37763314949720    0.96919956787123
H          -0.20721290342113    2.28334169310797    2.10267318217474
H           0.02442298774337    0.58487174034405    1.93701454396757
