    23
        -45.36802323  Gyration_radius:  2.3258518941 Dipole_moment: 7.577
 S          -1.03501629786881    0.50441509414478   -1.40436495927223
O          -1.80161990741664    1.66577239814036   -1.73519895063225
O          -1.44289403575643   -0.13632521069032   -0.14304217452374
O           0.41215108232726    0.73891226866776   -1.38366991066320
O          -1.28345172695588   -0.57030507460267   -2.53120242243211
H          -0.82277895459521   -1.36063470273096   -2.22494410608369
H           1.19569525635077    0.67371182932693   -0.15806922261071
O          -0.63438349526231    3.22283233058118    0.08180416558702
H          -1.18558044941925    2.77786398284075   -0.59207685001523
H           0.19024706979053    3.43289894351346   -0.36125562158741
O          -0.52464931989206    1.27745034979671    1.89421656031502
H          -1.05826559572544    0.69779413197139    1.30899459141623
H          -0.62547573729969    2.16450638864116    1.48422571624302
O          -0.49851576633920   -2.46336727382824   -0.63560343669693
H          -0.89575411974711   -1.60668137839495   -0.32741160026645
H          -1.19148587957732   -3.12147111387138   -0.55168256648337
O           1.60362338045562    0.57797811112718    0.79416860750439
H           1.72056239419750   -0.46377766084502    0.93453782119276
H           0.79334234410947    0.88961846671008    1.39706735578572
N           1.78252562706047   -1.96013138107440    1.04110602279917
H           2.66403964567599   -2.34401164141050    0.72648960057752
H           1.04538456364095   -2.28849142671002    0.41402944000721
H           1.59229991224756   -2.30855744127975    1.97188194987733
