    23
        -45.36262754  Gyration_radius:  2.31063324074 Dipole_moment: 1.459
 S           1.21272428820836    0.64526144369484    0.52241972317636
O           1.06467730305167    0.11658486157810   -0.82362259205901
O           2.32533260162518    0.12339229229892    1.24518977921780
O          -0.09677079500122    0.32074269072887    1.30126849576114
O           1.21934374013142    2.15447149983842    0.46402299373389
H           0.53342649935993    2.42903849826032   -0.30408524638816
H           0.05437007231623   -0.57428628936697    1.74917383533020
O          -0.39936816155878    2.54099613437214   -1.37367648590487
H          -1.26076722080771    2.14666087641067   -0.98986189190529
H          -0.06716178012933    1.88171557814263   -1.99148399362220
O          -1.29646852357823   -1.11674845909867   -1.45887942764550
H          -0.45417831397229   -0.65428562443459   -1.31916894564214
H          -1.11662584634118   -2.04198431304009   -1.28067822328631
O           1.55069138898137   -2.45833769347016   -0.25309199270431
H           1.43569284941518   -1.54697156426794   -0.58316415093894
H           2.49692924020911   -2.61646782539500   -0.24736016564718
O           0.69433399851497   -1.91736435855288    2.22985988563167
H           0.92338709632280   -2.32750457807028    1.36566129465299
H           1.52266537926800   -1.55469885576629    2.56325781872023
N          -2.43380413728685    1.29863536805539   -0.32572915894612
H          -3.40001345574749    1.59751352856477   -0.33428821520890
H          -2.14166629703577    1.15864186996635    0.63430693417150
H          -2.36674994597193    0.39499494949342   -0.79007029050737
