    23
        -45.36262747  Gyration_radius:  2.31052668901 Dipole_moment: 1.461
 S           0.82367594442414    0.06438428837713   -1.21578532249447
O           0.26291071100107   -1.15352947303033   -0.65402969978081
O           2.23659373394156    0.03469726777061   -1.40391585458730
O           0.46333610328561    1.23482038703761   -0.25307318190907
O           0.08018819148305    0.41326329778630   -2.48328423458327
H          -0.93828369277145    0.14510437832245   -2.31838674328068
H           1.23102483726412    1.30916350359909    0.40237861655358
O           2.12820515277689   -1.57429687570707    1.22611939878660
H           1.44097331072267   -1.56021293789296    0.53306694322913
H           2.87360645358075   -2.04304214720786    0.84516955737605
O          -1.14980041590125   -0.94663429122664    1.68295763957919
H          -0.70246148016173   -1.08833075878652    0.83287746358084
H          -0.48883780664947   -1.12189576121284    2.35570915447856
O          -2.21139255913884   -0.31038836525894   -1.87440702747884
H          -2.42996442251217    0.30267019280926   -1.08616528101828
H          -1.98822163007400   -1.16183911441956   -1.48461227508007
O           2.57401647128286    1.06957355782881    1.16652741745570
H           2.47585881868502    0.12191352151298    1.41100290118318
H           3.16062160452534    1.07232504816840    0.40182920369318
N          -2.50585806473637    1.17503447148657    0.24382296248042
H          -2.27252466719872    0.50975129832870    0.97843639409301
H          -3.33457798367721    1.68551706014830    0.51879528468641
H          -1.72908862012614    1.82195142144715    0.17496670299984
