    23
        -45.36460706  Gyration_radius:  2.35462251156 Dipole_moment: 2.038
 S          -0.69143476183612    1.75895114060965   -0.74273424630898
O           0.45873019372529    1.58619005262990    0.15535390496704
O          -1.88153323518063    1.15915586240105   -0.18940137679510
O          -0.37567915082949    1.33216939310883   -2.09202263561009
O          -0.94920453143011    3.31699361769503   -0.83873783538624
H          -0.47106315418314    3.53238654536626   -1.63261938379867
H           0.12990288428039   -0.25718944545328   -2.25308840460734
O           0.42493554627646   -1.15662263271880   -1.97704164046901
H          -0.32408160907869   -1.49507611493615   -1.44079358822840
H           1.49280641528213   -0.73920088295565   -1.09805832086981
O          -1.82058730941951   -1.43559780488659   -0.52894606881839
H          -2.59490635007837   -1.71780866448297   -1.01880748136931
H          -1.91619498946617   -0.46047714923646   -0.40582172417594
O           1.98182686088321   -1.42323042309088    1.81870591933486
H           2.52185495167238   -0.99373803035776    2.48430231543595
H           1.02083567243209   -1.14068063566689    1.99429938086203
O           2.10511278960535   -0.21800929097349   -0.39888325553150
H           2.13437026089703   -0.77660559940987    0.47773357440201
H           1.51707055524922    0.60302621920920   -0.17774703288921
N          -0.44105172036286   -0.48735613533626    2.01690344974015
H          -0.91977891073149   -0.27469462439528    2.88279656751275
H          -1.04686936834615   -1.09377820200053    1.47395695363128
H          -0.35506103937567    0.38119279490656    1.49065092897682
