    23
        -45.36460656  Gyration_radius:  2.35470123523 Dipole_moment: 2.029
 S          -1.20156240322576   -0.13178335407897   -1.63191360624183
O          -0.95558220807807   -1.51627841416054   -1.30778855481066
O           0.02589090308747    0.66775817262612   -1.51727996022681
O          -2.29521852883944    0.47188342683410   -0.89570726104321
O          -1.62985616718518   -0.07182796741194   -3.15382327151936
H          -2.26720936909879    0.63434682429488   -3.13610642876999
H          -2.02524886448947    0.71369141303730    0.74040105958372
O          -0.82298862749910   -1.82016926977939    1.28863856655969
H          -0.89936297100587   -1.77313654392679    0.30521404335088
H          -1.47503207007886   -2.46234420456617    1.57436129389878
O          -1.52608316098769    0.75518464734225    1.58968397218922
H          -1.20123962244442   -0.16223115567126    1.71606419360498
H          -0.44027878222896    1.58756513292130    1.12538253970033
O           0.31820204424602    2.05937723745768    0.54450021604390
H           0.20619148342214    1.58709782540266   -0.36824141574800
H           1.24023232928956    1.74103207438506    0.90498401007019
O           2.55453384742783    1.10453574679280    1.23172694695489
H           3.27465815781895    1.50162270895819    0.73890360472764
H           2.37326335876319    0.19861994455745    0.80673341836699
N           1.83162277903787   -1.07116520541009   -0.00490850400606
H           1.23547111252604   -1.59615799082543    0.62639718642145
H           2.45761194189451   -1.72949934237800   -0.45093154854386
H           1.22198479765181   -0.68812169639381   -0.72629049057047
