    23
        -45.37820769  Gyration_radius:  2.25241417316 Dipole_moment: 6.095
 S           0.55933502618557   -0.36880750961744    1.27324843100930
O           1.90372680016848   -0.61114929590449    1.71385975905305
O           0.13269663422692   -1.13167683075207    0.11410259764286
O           0.22598822351654    1.04817680015578    1.13121445303033
O          -0.38006462567492   -0.89035113217970    2.47225557995356
H           0.19589797317419   -0.81115577038015    3.22619975832788
H           1.23593198080330    1.57755430801072   -0.31875603308228
O          -0.38350584531705    0.17925747895872   -2.29053180611109
H          -1.40238689813745    0.81973472458904   -1.32266566649100
H          -0.19516094432397   -0.60234454589500   -1.75011439141315
O           2.96330979669038   -0.74560298872476   -0.73600547787866
H           2.76340159451792   -0.72779253158521    0.21752259331874
H           2.46409655939026   -1.48487282371016   -1.08962075947001
O          -2.47244695324644   -1.26349244026678    0.61735828554117
H          -2.50885378775197   -1.37473348891107    1.57005072474588
H          -1.53359790083894   -1.41834141885597    0.38335626660156
O           1.59525945028775    1.54056938874106   -1.21757343693507
H           2.28546659289078    0.84951171661630   -1.18543685177613
H           0.39320241102217    0.77271389230605   -2.12143465768290
N          -1.88557879303290    1.12453949273225   -0.40376981933748
H          -1.08264095006833    1.26035271694414    0.27300342228310
H          -2.42018149244750    0.30085658388597   -0.04678834990372
H          -2.45389486203046    1.95705368384343   -0.50947464141628
