    23
        -45.37820773  Gyration_radius:  2.25241757338 Dipole_moment: 6.094
 S          -1.35707369101281   -0.45351726846436    0.15071853664948
O          -0.06692678841817   -1.07948058485694    0.37730931525500
O          -2.24832558137457   -1.16811586182699   -0.71828129377513
O          -1.21129840222236    0.96346312270793   -0.18107145196960
O          -2.07305198066543   -0.46296329968524    1.59274614288929
H          -2.99147708122211   -0.55510523843687    1.35932966529004
H          -0.29023399866176    0.93322307254637   -1.77904223376744
O           0.40888278729477    0.68448950230576   -2.40173050897076
H           0.17480548340526   -0.21708443552465   -2.69722522496836
H           1.75335111474234    0.37934174494988   -1.42642123431357
O           0.45258260171362   -0.13480931009384    2.80516439581614
H          -0.40597354391680   -0.14343433699600    3.23416220977229
H           0.33002513630075   -0.66510720142590    1.99034246039785
O          -0.37001959919326   -1.90762984111707   -2.46996464927932
H           0.20088839823792   -2.41804230527733   -1.89176786656493
H          -1.17777952852227   -1.73487518130787   -1.95311599027149
O           2.24593713315417    0.12699985309678   -0.60320296839598
H           1.68294338284989    1.19354743040732    0.36154051750096
H           1.73654009519421   -0.61837822591230   -0.25198363730175
N           0.99075569380152    1.73782803420232    0.99030193027197
H           0.92500453873317    1.22264177174257    1.89692427628147
H           0.05445182266991    1.60196535909922    0.51484029930014
H           1.23599198713207    2.71504319983300    1.10042730019488
