    23
        -45.37324529  Gyration_radius:  2.38593751995 Dipole_moment: 6.189
 S          -0.39522856163920   -1.29517596702115    0.27708904070093
O          -0.01316927327024   -0.51845021746081    1.44702918613815
O           0.74658066452327   -1.61702864722476   -0.55491323710978
O          -1.44557763847823   -0.62110927485807   -0.49705769416507
O          -1.01259727458052   -2.62627629490302    0.82518496590532
H          -1.41923549234602   -3.02452322786131    0.03256291205575
H          -0.76981447542933    0.54027425201610   -1.39452293497444
O          -2.30529034393260   -2.89879216543888   -1.47980650580007
H          -2.05168817381321   -1.96067028434670   -1.35860010273315
H          -3.26174008028056   -2.93288492343280   -1.40708354006897
O           2.60279544255341   -0.25708042906512    0.58484727348733
H           2.03815919438519   -0.85878273023217    0.02938213109250
H           2.22477543942886   -0.37735175846315    1.46293894180804
O          -0.26704524261355    2.03361548695339    1.85024530327038
H          -0.31890810571255    1.05446509889269    1.69878069071173
H          -0.18517283878700    2.14121213116677    2.79912209816042
O          -0.41971481587470    1.35639677980625   -1.83633557812388
H          -1.15835926868752    1.96909831433872   -1.84727079965500
H           0.82675880512642    1.77464773159570   -0.91413984782817
N           1.50425085419933    2.00699559618802   -0.13393789546571
H           2.12194305666901    2.76905793414208   -0.38936593356088
H           2.04996992572150    1.11088931763653    0.10723804215817
H           0.90830821283694    2.23147329757001    0.69861347398587
