    23
        -45.36428909  Gyration_radius:  2.30233275529 Dipole_moment: 6.838
 S           0.16905068513026    1.21880775298305    1.66320534245699
O          -1.19056665878118    0.64938509954690    1.59164979077705
O           0.37275184895889    2.11845188955680    2.74456058869565
O           0.52564456263614    1.78593192787648    0.33912913069513
O           1.08934806858705   -0.05306775042531    1.83203798848829
H           1.90234835927733    0.12101566185324    1.29580199672131
H          -0.66067149187009    1.65654164433732   -0.58426250185144
O           2.82072803514529    0.51125611918369   -0.03230107104597
H           2.44318872789617   -0.16140352377625   -0.62299465575854
H           2.21891040212636    1.27150692370317   -0.10041827183593
O           1.22408447167012   -1.50699400635986   -1.11300786750496
H           1.72478461799433   -2.32435651486181   -1.12161086932981
H           0.60806648626509   -1.56550800239473   -0.34892562833933
O          -0.82338258658440   -1.74526915603536    0.65423300199136
H          -0.64046591415832   -2.31539225514644    1.40284260836289
H          -0.96562877473702   -0.84763564895680    1.05444580480013
O          -1.37841539525201   -1.04760082563790   -1.99376562229245
H          -0.41970900918074   -1.13282735990951   -2.11308142606441
H          -1.56159387377872   -1.54844465021233   -1.18556636224736
N          -1.66025583117075    1.33131684787058   -0.83412374819052
H          -1.93882213596928    1.05415160636767    0.13691131312485
H          -1.62013878273571    0.46592148813864   -1.43748736968987
H          -2.23925582141360    2.06421271227403   -1.22727215194841
