    23
        -45.37605300  Gyration_radius:  2.24837854991 Dipole_moment: 5.764
 S           0.37941589147329    0.81513042240575   -0.95376941831921
O           0.98275349270903    0.07838069607219   -2.04884605857477
O           0.94466142423804    2.12123341308900   -0.70796026376223
O           0.72209430242795   -0.05793484655898    0.35433805361781
O          -1.07775524357203    0.81635470153935   -1.00677133718274
H          -1.63323626490070   -0.40778039747193   -0.31126564212331
H           1.70022370979363   -0.04520955722370    0.36211334346156
O          -0.79886698419862    2.25307564014222    1.38497108368194
H          -1.59232810311752    2.36551618042713    0.85526577696555
H          -0.07180307611351    2.30973974090542    0.73938161619711
O          -0.97798905242396   -0.19384818372313    2.53947955906435
H          -0.05329842412071   -0.42603975882069    2.65417715206292
H          -0.95640416591833    0.73384740461921    2.20537700002909
O           0.07245073461693   -2.34637989821028   -1.45697587990796
H          -0.06681878360679   -2.79946309486952   -2.29052115241981
H           0.45894534699379   -1.47229969044183   -1.69201475454577
O           3.17240445664666    0.55415955801077   -0.43610246287441
H           2.83153691694435    1.45957865716569   -0.44376649497759
H           2.91332117102535    0.19492216536387   -1.29461029874733
N          -1.74578804435796   -1.30838677582240    0.26005134562356
H          -2.69127238358592   -1.67408442345182    0.23497605165770
H          -1.44922291950613   -1.01871158021160    1.23892846428163
H          -1.06302402146982   -1.95180039294754   -0.18645568321265
