    23
        -45.36279687  Gyration_radius:  2.33824707177 Dipole_moment: 4.320
 S           1.38171547978940   -0.55743175687964   -0.54141876823777
O           1.05220833833371    0.72489289713640    0.04408510435274
O           1.77018300721427   -0.51039782031226   -1.91394827789555
O           0.15384905460248   -1.49472055105560   -0.37087059480307
O           2.43721533388220   -1.25855807048640    0.29993859697498
H           2.24346888653161   -0.98942982806362    1.27473194312642
H          -0.66946500334611   -1.09974762687720   -0.78235136513458
O          -1.86654407580003   -0.34713891177572   -1.52499451702759
H          -2.22504162954012   -0.91884730149190   -2.20656719214121
H          -1.33617367110832    0.37622528743708   -1.99462975463908
O          -1.45866165856799    0.83250872874954    1.02931104655413
H          -1.97114716144824    0.46980051352184    0.29850487591092
H          -0.55416846150264    0.93826604989965    0.68132548929882
O          -0.79340342084256   -0.92334624884506    2.93577912319840
H          -1.18538156735202   -0.64814157611748    3.76620503426567
H          -1.15022344770518   -0.31821995650913    2.24504155398841
O           1.74815764718377   -0.29146575212825    2.51788867950495
H           0.85883472974396   -0.66119015449748    2.74946394789106
H           1.56913867409440    0.54828821393838    2.07637484136997
N          -0.23404131756967    1.39230039291913   -2.59295883084639
H           0.58691051019494    0.78725323254601   -2.58555417018915
H          -0.05982062794590    2.11403727126129   -1.90374250907190
H          -0.29760964886301    1.83506296759061   -3.50161426642448
