    23
        -45.37434816  Gyration_radius:  2.42264563992 Dipole_moment: 2.245
 S           0.44495861709731   -0.51818058158951    0.56818758660696
O           1.09842686858433   -0.56831252928772   -0.74464427685010
O          -0.51242560160136   -1.59599504307135    0.71985969423556
O          -0.17424520742565    0.79282992169984    0.78102326283907
O           1.53327680544980   -0.70917782810361    1.65495537437284
H           2.10625633074196    0.10405219793361    1.63598000022383
H          -1.42960678912157    0.83623601288797   -0.02805866284433
O          -3.04820492631368   -1.17854065148951    1.25601988543900
H          -3.10775521695797   -0.95938303252562    2.18731790937963
H          -2.11400546098586   -1.46755063501564    1.11222326885800
O           3.13738160310974    1.33549391068901    1.40831136453683
H           2.91823907667411    1.61187352424537    0.48958286923833
H           4.03940335328945    1.00781627852919    1.38951415288417
O          -1.06299219373243   -1.23364888227832   -2.07726462477155
H          -0.17295951819148   -1.00255230984009   -1.72303264359514
H          -1.28157901533994   -2.05875380609596   -1.63412597763910
O           2.52840119583654    1.57938948108872   -1.18163127666691
H           3.12766820293658    1.34027581043902   -1.89122187265758
H           1.92194058457765    0.80968066884130   -1.07180692114655
N          -2.31143440766826    0.57245442969093   -0.59748596622429
H          -2.80113672551392    1.37681154402958   -0.97211818832669
H          -2.88842660615565    0.00542278730570    0.06675804895999
H          -1.95118096927669   -0.08024125806475   -1.34834301684890
