    23
        -45.36728169  Gyration_radius:  2.33221117445 Dipole_moment: 3.382
 S           1.27813401743361   -1.58447196682424    0.86918382408350
O           1.88405888017323   -1.63964640632167   -0.43449273067071
O          -0.16932515335958   -1.36863482591665    0.79096109667599
O           1.88956051608350   -0.61659849299193    1.77658191797265
O           1.49160665219382   -2.99132523870315    1.55599967975904
H           1.44725949135955   -2.77647034077377    2.48242987309678
H           1.53907236754779    0.80898661387961    1.44226140353819
O           1.11622027378959    1.64600506184399    1.02059162675884
H           0.04540927422590    1.48940140985085    1.22883576985756
H           1.22943183871756    1.46538252093819    0.01132517539980
O           1.34511358557557    0.78011827906373   -1.35126700873337
H           1.81577821941583   -0.04907558083912   -1.12506081366346
H           0.48063190482017    0.45289439541633   -1.66742639313094
O          -1.23467676572827    0.98877659679769    1.37504385149935
H          -1.01370625376126    0.03529910069267    1.29531775243963
H          -1.72996855152394    1.21829496113790    0.53439278053721
O          -0.74757270405508   -0.89651195345289   -1.74432112583856
H          -0.60656687210669   -1.15371258189849   -0.80508634145653
H          -0.30866250368714   -1.57814660398051   -2.25756550896343
N          -2.35101312267938    1.44686983925343   -0.99292247274196
H          -3.36202943869118    1.44261859143422   -1.02905760378905
H          -2.01619400925146    0.61934237881115   -1.47854483772974
H          -2.02256165645020    2.26060423257425   -1.49717990488011
