    23
        -45.36171525  Gyration_radius:  2.36543712569 Dipole_moment: 2.103
 S          -1.84135310875502   -0.42917220018841    0.21994505575745
O          -2.46313792935896    0.27852853661364    1.30348812021885
O          -0.58830901725316   -1.09210400699474    0.55638924996410
O          -1.67875575190873    0.40127395090158   -0.97934849176902
O          -2.82475486569838   -1.60512517490230   -0.19279867194906
H          -3.68648909777031   -1.21622077940417   -0.08222723104130
H          -0.38141943506941    0.43977922122096   -1.59900760655377
O           0.96490317064657   -2.04876250680455   -1.37941345415456
H           0.29054481320013   -1.98530561014769   -0.67073631852734
H           1.82619962593327   -2.02778396119262   -0.91156203295997
O           1.28581535496047    0.76167495018313    0.58723686936942
H           0.66631929006934    0.02199713824174    0.77790923024828
H           0.74482167659546    1.56159459549756    0.84145306242927
O           0.64456681543271    0.38777546023120   -1.83487472097307
H           1.06797363669614    0.68258669240716   -0.93860296408718
H           0.82889836756500   -0.65567308078537   -1.84006804056774
O           3.02482034403727   -1.40837965229061    0.25786562603044
H           3.05905298317098   -1.88097189515368    1.09122022957904
H           2.69694588442066   -0.51908730771252    0.45821958278595
N          -0.64963277987808    2.47789516203543    1.06069352258828
H          -0.94342895944209    2.94536909769603    0.21124797247347
H          -0.69609103816629    3.15371406734521    1.81377476570700
H          -1.34748998941031    1.75639732318870    1.24919624543502
