    23
        -45.36171530  Gyration_radius:  2.36577661473 Dipole_moment: 2.107
 S           0.84924857580245    0.13558300311466    1.69918608577031
O           0.75734908274477   -0.90268753833877    0.68129392332746
O          -0.06005257705948   -0.01237327766330    2.80036958031073
O           0.78238712332416    1.46677186463392    1.08412685352564
O           2.31774737157857   -0.00042720847151    2.28687095805619
H           2.25202108319870    0.42654637102600    3.13508174624069
H           0.63410480818134    1.54030919023088   -0.34433616763866
O           0.44676018926422    1.36435156632535   -1.36663626539244
H          -0.40069529565354    0.77420388132193   -1.31296424125658
H           1.19679079247923    0.66096080536445   -1.62215938272522
O          -0.08134142245573   -1.98481954520349   -2.69447206275448
H          -0.16840904205907   -2.89143500450422   -2.39536899350005
H          -0.76468289857713   -1.47531908410971   -2.23408197102136
O           1.98881469198474   -0.58150470540971   -1.65435189961948
H           1.43001801921330   -1.16723692509160   -2.20721656077207
H           1.79606416238021   -0.84594794736313   -0.73023692830098
O          -1.34257464879857   -0.34082325855448   -0.81083959919950
H          -1.91219810585717    0.14103431707158   -0.14712353866728
H          -0.65620116125116   -0.75050893209653   -0.23792486739122
N          -2.26130295361861    0.98222948161236    1.26784249865187
H          -1.56127988571325    0.60946910235398    1.91136884897718
H          -3.16811967039269    0.87714666638953    1.70675342749154
H          -2.07444823870715    1.97447717735278    1.18481854586607
