    23
        -45.37675813  Gyration_radius:  2.29627640714 Dipole_moment: 6.053
 S           0.20718319104978   -1.39532850604782    0.04427589603597
O          -1.17018748000118   -1.34443467956664   -0.40981604614332
O           0.37775665488435   -0.71142516478266    1.33175453065068
O           1.13216184311672   -0.86309140951039   -0.94763995134956
O           0.58664950253213   -2.88780504749459    0.31229755789470
H           0.45490316981308   -3.28770095703462   -0.56933901497656
H           1.09976123415433    0.77412556419376   -1.39113364292756
O          -0.01533644432706   -2.97239428129336   -2.25645096972010
H           0.62505942629042   -2.25299958296204   -2.33592216496509
H          -0.83328137168962   -2.54233085809877   -1.97058377666738
O          -1.39523444659536    1.17066465192992    2.02466983113037
H          -0.87215981259716    0.36243569437529    1.83970384038738
H          -2.19714751867354    0.87437929168458    2.45768309391145
O           0.87708241128810    1.73029491801033   -1.32023658986250
H          -0.11412009799304    1.73072198519590   -1.30472513530196
H           1.17565568698661    1.88369922830646    0.08999941292191
O          -1.64829799556609    1.26903309680756   -0.75459638014994
H          -1.60411774805248    0.29277783759446   -0.76703568848947
H          -1.74714691936955    1.49095601385666    0.18404661038619
N           1.27291327853085    1.74115935944464    1.19415291910072
H           2.17789891097530    2.01943453798475    1.55640475993317
H           1.09944942411579    0.70095918191221    1.31538310752460
H           0.51055510112103    2.21686909547873    1.67710780065400
