    23
        -45.37910986  Gyration_radius:  2.28553265741 Dipole_moment: 4.306
 S           0.39636235950476    0.91909409383491   -1.65636346000294
O           0.94663822452700   -0.42773408024280   -1.58353734882331
O           0.65276738117901    1.67373498803803   -0.43238692304740
O          -0.99454639579156    0.93255561203960   -2.04748845579639
O           1.19646275429420    1.68138974010149   -2.79251895476958
H           0.77403201105299    1.37074136739950   -3.58701635116175
H          -2.19124446703527    0.14633342073745   -1.09449981920254
O           0.66027598077426   -1.11694856937833    2.16471070577289
H           1.06961602950780   -1.56359228644208    2.90628162589589
H           1.40566951557461   -0.77594157685264    1.59257812811107
O          -2.56174883527071   -0.33494663658458   -0.32392988866220
H          -1.80895439334165    0.37509087807909    0.75779283615927
H          -2.06924047805987   -1.18875998881884   -0.32080428599649
O          -0.62027455467313   -2.13507386705538   -0.19065407445432
H          -0.20435694165176   -2.03555870492666    0.67630489266726
H          -0.04275500423890   -1.65554160526711   -0.81328460322974
O           2.44910147058652   -0.10648723079295    0.54583260624759
H           2.07608569586528   -0.41978769310623   -0.30475861700694
H           2.25289147277744    0.83846069498852    0.51838003217084
N          -1.04699538454268    0.85508181038330    1.38209224691093
H          -0.37717870053399    1.30671423781429    0.69617112789023
H          -0.51883227224544    0.12240347069871    1.89042553760733
H          -1.44377547827393    1.53877190535281    2.01667306272035
