    23
        -45.37811677  Gyration_radius:  2.377169626 Dipole_moment: 3.946
 S           0.29727095215947    0.43512283207790   -0.74846678398909
O           0.27358554252350   -0.95232932689988   -1.21272481954722
O           1.54689850575541    0.77173592163033   -0.09998254894126
O          -0.84702801271295    0.68796951843379    0.15002106839299
O           0.15112333527916    1.36688630832897   -1.97362729794987
H          -0.64838284318295    1.08404579861101   -2.50279390331931
H          -0.43912248368227    0.14760462803282    1.51066292069319
O           1.89036904360490    1.68944788836574    2.33694385637954
H           1.90685942870086    1.41850009494752    1.38813544442447
H           1.69112893892093    2.62705089794135    2.33524860117310
O           1.53115281966747   -1.92739411817797    0.87392081911379
H           2.38494702405546   -1.49364563233946    0.78901884097845
H           1.06790560783757   -1.71596983076296    0.02944922632146
O          -2.36965892303750   -1.09725387543244   -1.19977781060913
H          -1.43625472186625   -1.37673347053964   -1.26013574778571
H          -2.33368725485592   -0.38560181560146   -0.54538089062870
O          -1.88409652950578    0.43504015762080   -3.29567683843544
H          -2.26102324161812   -0.15561356082214   -2.59555327547976
H          -1.53823502214567   -0.14394529325355   -3.97847963515511
N           0.09666003128015   -0.26641057448327    2.34510509124681
H           0.76284070551198    0.48585233180806    2.64155650746985
H           0.66802568602914   -1.05362360157606    1.91941190784179
H          -0.51127855869901   -0.58073525794695    3.09312525780977
