    23
        -45.36596496  Gyration_radius:  2.40378254195 Dipole_moment: 1.820
 S          -0.70162128036741    0.72501031955297    1.21362485042170
O          -0.38528463554454    1.35696444669740   -0.04436268976261
O           0.38591171094915    0.68850126733862    2.15053787255671
O          -1.22480651856165   -0.69385574192595    0.94173842554618
O          -1.91776638225731    1.40850299098458    1.84226625257716
H          -2.59160422307899    1.43531319185938    1.06292850768352
H          -0.46822359616516   -1.35954032505933    0.64396151505514
O           0.96979016104054   -1.47064818468730   -2.34214656250820
H           1.65082347278457   -1.88825165730324   -2.87151081696845
H           1.32338092397074   -0.58284503867206   -2.08401983637879
O           0.66001192177208   -2.16471009996343    0.19797374547520
H           1.44452247993287   -1.70761312668278    0.55669361834543
H           0.69520712801651   -2.02700268412041   -0.78129989237207
O           2.55277215377423   -0.45937577407590    1.19650281476137
H           1.81328242232884    0.03557265890136    1.61655716306639
H           3.19805977454281   -0.61663094556038    1.88817949441781
O           1.94885252851778    0.75356623659569   -1.28446730850955
H           1.12518027703043    1.13238962952069   -0.92939088281787
H           2.42680032247826    0.42334516848998   -0.51140565146469
N          -3.19946076622659    1.29584369573518   -0.36321587843610
H          -3.86497541032536    1.95650769310213   -0.74237867812236
H          -3.53562445107231    0.35537770219593   -0.52317123231667
H          -2.30522804354927    1.40357860707033   -0.83359483026151
