    23
        -45.37164070  Gyration_radius:  2.37983139019 Dipole_moment: 5.938
 S           0.16486829809255    1.43347436825242    0.14017305369257
O           1.58667255219439    1.47507982269269   -0.13880809122001
O          -0.14692362096367    0.76561120010765    1.40621171420997
O          -0.59641237629049    0.84859769031639   -0.95859802927062
O          -0.34485146225128    2.90816805304511    0.32109000561494
H          -0.11008096597689    3.31605097705295   -0.53419360749798
H          -1.07804479858518   -0.72726180844734   -1.24367580218529
O           0.97750003610212   -2.67932328408106   -0.26789780700638
H           1.43716314181282   -1.99390819156354    0.27558937789371
H           1.62855724884354   -2.98708396136177   -0.89997733912900
O          -1.33995236400388   -1.66195291102428   -1.07430249613692
H          -1.80561719071094   -1.41926140841245    0.27267515093334
H          -0.49249604028273   -2.13576720266813   -0.90063883884511
O           2.18242678395025   -0.76429330959203    1.13183249083293
H           2.15153681864621    0.04818470999322    0.58577905760577
H           1.65521542269618   -0.53475074093263    1.90207265143461
O           0.60246075585733    3.00641721163093   -2.15218874142178
H           0.01959498178026    2.24796069072677   -2.28936728051457
H           1.39146125635532    2.63131112271210   -1.73604621302090
N          -1.96706603062387   -1.05331813080049    1.31644685843007
H          -1.77216297266472   -1.78275268707460    1.99448411401256
H          -2.90352637300073   -0.68454503849797    1.44142709935637
H          -1.24032309101430   -0.25663718168479    1.40791267199925
