    23
        -45.35484647  Gyration_radius:  2.34553977755 Dipole_moment: 3.053
 S          -0.04978819690005    1.93814717325593   -0.43094563693269
O           0.81237780878219    1.40713747885544    0.59639720730016
O          -1.40620365526206    2.14565542761287   -0.07505598263471
O           0.10632342602704    1.10919703836300   -1.70155718975889
O           0.56529272991200    3.30339398651119   -0.89793581740862
H           1.47313637594944    3.11459566135338   -1.12350936094396
H          -0.33466630779577    0.14652823043175   -1.63596102459285
O          -0.83432793697853   -1.18024872502051   -1.57111704900373
H          -0.16389351764115   -1.65044677837367   -0.93682988554635
H          -0.71029214730013   -1.58476533684798   -2.43300702240207
O           0.89862896242839   -2.18528998933870   -0.02731595724318
H           0.58567112329587   -1.86308731155009    0.85769397455160
H           1.69011710985926   -1.64543684560678   -0.21635487709686
O           0.03576718067558   -0.86007986743585    2.08382061519738
H          -0.92402336936850   -0.80956333268448    1.86968404991479
H           0.38135616532872    0.00343186818530    1.82269194380729
O           2.79201482148969   -0.22410502323776   -0.17584927306546
H           2.10421115281585    0.40658455003891    0.11140885395343
H           3.38272445230054   -0.33386983519439    0.57224888381525
N          -2.40903817071233   -0.40461131991120    1.00396022590801
H          -3.33162275792600   -0.46892735473320    1.41541015741737
H          -2.41799918541292   -0.93140508912708    0.13822700131804
H          -2.24576606360878    0.56716541444091    0.75389618340036
