    23
        -45.36358313  Gyration_radius:  2.40039157433 Dipole_moment: 2.474
 S          -0.42755563328263    0.87144268649720    0.67486629066827
O          -0.81475852151739   -0.08495808838648   -0.37785012788100
O          -0.57425449180697    0.29550417443298    1.98929682430844
O          -1.36496186224965    2.10427375852303    0.53093950219095
O           0.93003541178674    1.36794314601153    0.42586437771603
H           1.66745758921174    1.10459485184328   -0.71511806971992
H          -2.25031644513527    1.76087912050249    0.83332223051619
O           0.14477366514368   -0.12988717498519   -2.77427501634482
H           0.14126251836681   -1.05818508550019   -3.01788170974699
H          -0.35895238968275   -0.06561959231899   -1.91916018439496
O           2.21116617425412    0.71094791133198   -1.56163364873587
H           2.62873805735643   -0.14467656788056   -1.17124654923311
H           1.46209677245393    0.40896009389845   -2.19584618689878
O           0.72951968210676   -1.84133491740882    0.85108324528781
H           0.59623343165125   -1.38698173463046    1.69274406289558
H           0.07180260068415   -1.40544969875982    0.27553752854670
O           3.00510391333778   -1.40492671783652   -0.39301554653079
H           2.17023640775402   -1.66269717788313    0.08308046203105
H           3.65971392152055   -1.23520687054407    0.28699418811727
N          -3.33164240052362    0.67171171342095    1.49786258508590
H          -3.66780280492093   -0.00904919419590    0.82925194711430
H          -4.07654233067372    0.87501615418355    2.15185547504557
H          -2.55135326583616    0.25769920967925    2.00332830996110
