    23
        -45.38117572  Gyration_radius:  2.29877483922 Dipole_moment: 2.264
 S           0.57332340354288   -1.37011579239191   -0.16532515831606
O          -0.45630275048952   -0.92028735941858    0.77009493323175
O           1.90378159988770   -1.12511900098600    0.35394445957102
O           0.36705893930384   -0.75287755733288   -1.47746735599102
O           0.41347031649935   -2.91326616846544   -0.34096765656759
H          -0.43053252478778   -2.99705278508558   -0.82458201635703
H           0.49412170444297    0.96724087387322   -1.48059470890499
O          -1.88585797199610    1.19125644231419    0.08930391376146
H          -2.64301910798694    0.93691651817137   -0.44003805402166
H          -1.42022180074298    0.35120423079904    0.30885489537253
O          -0.27215186628674    1.02358560876824    2.60063082368646
H          -0.35732091287994    0.15166151302844    2.16370133281831
H          -1.02061873860156    1.53062496626259    2.26887807629515
O           0.42066334698438    1.88782693415007   -1.15208838581093
H          -0.48297330177183    1.92232073093588   -0.78114341731544
H           1.34467014614138    1.77072682324765    0.11556507342411
O          -1.60690367822778   -2.37198284965993   -1.99445745782343
H          -1.53855014487018   -2.75390359147096   -2.87234812181356
H          -0.97912333877919   -1.61809901374075   -1.97036382954970
N           1.81369387076088    1.39905378761572    1.00416015430504
H           1.09358126929691    1.40581363290841    1.77554494964537
H           2.65564459664787    1.90756562467971    1.24978111924394
H           2.01356695376173    0.37690643277939    0.79891642063610
