    23
        -45.37030166  Gyration_radius:  2.2655654129 Dipole_moment: 2.662
 S          -1.77335655937876   -0.47405637040880   -0.18963424431249
O          -1.63850602159053   -1.44322093786112   -1.25575162440980
O          -1.37788811324882    0.86831872094492   -0.55720716713747
O          -1.09549383521136   -0.92007340335486    1.03339716260374
O          -3.31365984816398   -0.40992519855746    0.16409198127813
H          -3.57582113234537   -1.31473443202240    0.02958602195398
H           0.34452245722257   -1.41103121615718    0.92052131308291
O           0.94235981205013    1.05486852550468   -1.70828131605080
H           0.04141549173915    1.02209430846939   -1.29378280959967
H           0.90568660387770    1.74679490419920   -2.37008018074546
O           1.31983701366668   -1.57780425836272    0.66800166611655
H           1.27141315872350   -1.75460583653012   -0.36233668634990
H           1.78513396890386   -0.59855218114818    0.75820282539754
O           2.14516533402991    0.76403860988229    0.72632859530257
H           1.93316948380943    1.00853603664083   -0.19320172428149
H           1.41091261024001    1.17398804873814    1.27842992397548
O           0.91348035205622   -1.68362304136776   -1.80948301197944
H          -0.06909011163490   -1.73348675982467   -1.74748008273826
H           1.10232040857875   -0.75851253407314   -2.04364727148168
N          -0.04765804455282    1.58667020763354    1.92850774214516
H          -0.15953445963763    1.88280616302171    2.88981053539626
H          -0.55273011728715    0.71029839985717    1.80206117300467
H          -0.51167846184721    2.26121225477935    1.33194719884975
