    23
        -45.37030167  Gyration_radius:  2.26574549011 Dipole_moment: 2.658
 S           1.02715099812353   -1.46188141537733   -0.46352356126108
O           2.34088154350207   -0.90459775340441   -0.22363536926691
O           0.28055545972590   -0.78945069184929   -1.50464999963495
O           0.24977733969099   -1.56371520638121    0.77714217044136
O           1.25530185387169   -2.94672644316843   -0.95849489395381
H           2.02213728701631   -3.19802888567266   -0.45420978553141
H           0.16506339197456   -0.33605402280630    1.67827268336081
O           2.02649662295007    1.52361364480314    0.71610754264189
H           1.52651244495557    1.90590650019807   -0.02568491117299
H           2.34335174037367    0.65109905709329    0.38449549045183
O           0.12162586840683    0.60486635311058    2.07309252810835
H           0.95953441532885    1.07498673258920    1.65828660678945
H          -0.72787137421164    1.06138325344631    1.57036780431810
O          -1.70684401632942    1.53367432112285    0.67172867620412
H          -1.16292152222865    1.85385935615437   -0.07108779101142
H          -2.10672852756315    0.67023341987423    0.34567205396147
O           0.17754910858653    1.79640983978429   -1.28801516988182
H           0.19659445233959    2.18208518838384   -2.16490952565376
H           0.21382202542229    0.81340007716102   -1.41858451183154
N          -2.33424474554971   -0.85981624673938   -0.22804433824394
H          -2.20927125924254   -0.87358325683574   -1.23326632355811
H          -3.14717723485743   -1.41858143927845   -0.00165066508511
H          -1.51129587232528   -1.31908236222052    0.16059127980779
