    23
        -45.35549218  Gyration_radius:  2.34227316333 Dipole_moment: 3.513
 S          -0.82023744582126   -0.88019715249734    1.61975307943485
O          -1.93822969271880   -0.11835819187324    2.03962741663823
O           0.47722879277232   -0.26760162598992    1.69974725098732
O          -1.05705873099108   -1.41736177436403    0.21014100703187
O          -0.73702352200704   -2.19192025692668    2.49866606134956
H           0.18518110634238   -2.44029015999360    2.52318387746185
H          -0.12379072536877   -1.73957354355967   -0.17252299223641
O           1.14503219915493   -2.11169832711522   -0.69134743534518
H           1.02921207151302   -2.73574855621263   -1.41247380153763
H           1.40407434712436   -1.21821333843975   -1.14179419619506
O          -1.13321376877725    0.35674587747483   -2.10852505262267
H          -1.25453083411959    1.07890953392750   -1.44267540326241
H          -1.50217323713921   -0.42169607670926   -1.68294267595808
O           1.76267465832808    1.68218582776360    0.39599825092991
H           2.63831629586347    1.78605403713699    0.77208893036164
H           1.31641852101213    0.99214601799521    0.92425698630221
O           1.50695402359664    0.11837247203235   -1.83482716821080
H           0.56854570690292    0.26609235391730   -2.10533849317559
H           1.67698662548019    0.78449044500759   -1.14211998293307
N          -1.30500478224994    1.99768803464606    0.01799824732472
H          -0.35052952715484    2.27641321054535    0.21584700567294
H          -1.60675569846536    1.37491052417247    0.76093823257500
H          -1.88207640354073    2.82865067900016    0.05632085622496
