    23
        -45.36381888  Gyration_radius:  2.25272432837 Dipole_moment: 6.107
 S          -1.60211477066491    0.66194734669746   -0.20926552874751
O          -2.69155339199391   -0.26743738938644   -0.50760051100410
O          -1.92079172592527    2.05446674126030   -0.19290643378999
O          -0.44651330062630    0.34544913427706   -1.07459307665908
O          -1.14681053565197    0.31523928385290    1.26884849081323
H          -0.70321927422779   -0.55639885203750    1.29490362144539
H          -0.53097690897417   -1.17274065424223   -1.34396096920582
O           1.97028646115811    0.06151406973037    0.96280255064646
H           1.42808192352260    0.85257590399822    1.13408550194962
H           2.26541684197462    0.20937843852876    0.04040558639799
O           0.59256529126536    2.49693506273799    0.74102925297550
H           0.42431073034216    3.01729265923816    1.52906712722431
H          -0.27859646524555    2.37382492602253    0.32271354668714
O           2.11646292598440    1.06508395350328   -1.52632657404232
H           1.16522937289653    0.85660846583557   -1.51754707566472
H           2.16436008966244    1.97625925870068   -1.22438088272596
O           0.34966965667902   -1.92258823651692    1.21931212275387
H           1.05955219476780   -1.21659042790418    1.06988205743298
H           0.51942002115227   -2.26953524248388    2.09670455088993
N          -1.05006621580793   -2.08351001694141   -1.10587537920541
H          -0.58994651645864   -2.46286714815421   -0.26785310386747
H          -1.12213748496588   -2.75192196689454   -1.86432802397464
H          -1.97262890902004   -1.58298529987874   -0.84511684036712
