    23
        -45.36660389  Gyration_radius:  2.4224940848 Dipole_moment: 4.563
 S           0.45054634852509    0.67653272979765    2.04919871627550
O           0.93308518567000   -0.51884082718803    1.36524113323455
O           1.14082717016996    1.01338559302992    3.24863942851144
O          -1.06422031550701    0.28529794262487    2.50842886213938
O           0.24169261491191    1.76698270343386    1.09779309456472
H          -0.93929487424856    1.27964436812729    0.28643528878875
H          -0.93849021269318    0.10304939178360    3.43460433009754
O           1.15634625492009    0.12889184718773   -2.75034851837121
H           1.80669819742049   -0.34704358906519   -3.26776209076842
H           1.62110076286889    0.42330209466759   -1.92971802952464
O          -1.17372244773886   -0.85764721466501   -1.94555307713137
H          -0.90914697824291   -1.57633918067552   -1.33091252510167
H          -0.33965578559357   -0.51466069821214   -2.34300080017446
O          -0.41183685950599   -2.38768106592755    0.10218063672252
H           0.06670334088763   -1.70010672975356    0.61859909683278
H           0.17206123742954   -3.14705882519394    0.07925622849686
O           2.32762420976399    0.82383478517243   -0.46566070821019
H           1.95028369495975    1.66179967004862   -0.17741526989416
H           1.97941344743565    0.18187325202420    0.18102610659433
N          -1.82160593143762    0.80849887740059   -0.10259540427323
H          -2.18089852116107    0.25158549733520    0.67229988648290
H          -1.56652883773399    0.13705094867499   -0.94496794066037
H          -2.50098171110078    1.50764842936973   -0.38576845488396
