    23
        -45.37100582  Gyration_radius:  2.40280922503 Dipole_moment: 6.009
 S           0.91971186095711    1.41289671432078    1.30409844368687
O           0.97490484812473    1.10708349711666   -0.11909953282416
O           1.34343402901719    0.26027444999728    2.09780357710423
O          -0.35261730394958    1.94161961000226    1.73845564575057
O           1.98740684491054    2.55869858752726    1.54810965967851
H           1.62377144198712    3.02488879273383    2.29486747987556
H          -1.66594846809990    0.96817397196807    1.19522683513945
O          -1.30649224823403    1.06516941561733   -1.65426511686426
H          -0.46310848992225    1.30559524896739   -1.23747337260545
H          -1.08460981169573    0.39971407547566   -2.32807400137497
O           1.30829091885726   -1.32772544832135   -0.96349479009139
H           1.22743145680501   -0.37569318408268   -0.68380891637113
H           2.24855296540686   -1.48692893148864   -1.05844153493028
O          -0.40869519026280   -1.11141819346790   -3.11534376079376
H           0.27251934315602   -1.26039626075886   -2.43624660466311
H          -0.96266124572147   -1.89274371095680   -3.13700416225893
O          -2.11492474981625    0.24415118735192    0.70934868320908
H          -1.16866973952098   -0.85845270334596    0.98029206214973
H          -2.01333283423084    0.51590404810336   -0.23930193313127
N          -0.31618949791337   -1.51260749970546    1.22378661508939
H           0.37511234592016   -0.87179712634857    1.72815211712312
H           0.16356971494626   -1.80081983878837    0.35812308493440
H          -0.58745618079357   -2.30558671215538    1.79428952219991
