    23
        -45.37611105  Gyration_radius:  2.37890154012 Dipole_moment: 2.492
 S           0.67851424044034    1.41404297908344    1.24166114971577
O           1.48849175469798    0.21176050853726    1.11731280893133
O          -0.66519524838441    1.10558253735042    1.72480520534919
O           0.66316073948184    2.22546375733242    0.04625354132437
O           1.36873830395122    2.29118345102592    2.36710518392336
H           0.94777931686641    3.12995340577121    2.21342493920757
H           0.09676373649527    1.44962839046675   -1.36722980000063
O           0.74197991453893   -2.32768344289226    0.65954181670634
H           1.13599984381248   -1.52835088053292    1.05986294715402
H           1.11075511818660   -2.35019884252933   -0.23103293965720
O          -2.40078825775779   -0.33840904049334   -1.62427203213714
H          -2.01122431870678   -0.88054124354588   -0.17106061752519
H          -3.04513168381955    0.36885865008060   -1.67976597227950
O           2.07171040073131   -0.66431369415860   -1.31838148263565
H           1.93902061416042   -0.26045932615413   -0.43208885666209
H           2.89546201734012   -0.30736476081862   -1.65302821161688
O          -0.11231984975001    0.81151249349009   -2.07966144691164
H          -1.53079739987494    0.07400239148776   -1.89335012366390
H           0.62162304014638    0.17386213642207   -2.05108176902254
N          -1.62128028672481   -1.11373036795468    0.78483843030782
H          -0.77547951626106   -1.73803843556504    0.69040214300322
H          -2.32427929834392   -1.54514657482929    1.37468797240428
H          -1.27350316121329   -0.20161407159122    1.22105709400256
