    23
        -45.36015966  Gyration_radius:  2.4318031689 Dipole_moment: 5.028
 S          -0.18599491344603   -0.90908942086095    2.19971704294629
O          -0.92027285968583   -0.90511116567646    0.94378737860304
O          -0.12679803657052    0.39006886765869    2.83178546815188
O           1.14400323735973   -1.50001906188106    2.04176053923948
O          -0.98516451589894   -1.86580250779742    3.17014188239103
H          -0.53639923314226   -1.74185822174081    4.00080529130884
H           1.90326925593408   -0.82304927767734    0.98546371342038
O           0.98724025695712    1.81489312983744    0.93394471625941
H           0.63882944589860    1.45670784286435    1.78396346134032
H           0.18051272654429    1.90114395927748    0.37546223510197
O          -1.29097707583177    1.39933376292860   -0.36807813135008
H          -1.26178201820790    1.08755531375598   -1.27847228693134
H          -1.36390581082883    0.60096119721803    0.19108587588260
O           2.17842900438077   -0.23219355989052    0.17127656840039
H           1.58199060725522   -0.61391526109263   -0.57864841069025
H           1.76357845097124    0.72401957903758    0.44026637016857
O           0.39602637004274   -1.20183726464724   -1.33948210492577
H          -0.19166521745331   -1.28417822342200   -0.55744508173630
H          -0.05259419752429   -0.61047073015050   -1.97021900889583
N          -0.88605485475433    0.48728542182053   -3.23986127957511
H          -0.62681918670682    1.45714224921175   -3.38421691248811
H          -1.88970115517727    0.41638431428277   -3.36673244575489
H          -0.45575026015334   -0.04797093303378   -3.98630487086067
