    23
        -45.36427707  Gyration_radius:  2.288363966 Dipole_moment: 3.486
 S           1.32320164006929    0.41517994808464   -0.77425858866171
O           0.22951674355760   -0.36971457554833   -1.29801412463619
O           2.58799642499457   -0.25036948391424   -0.74925676098582
O           0.94390420678652    0.85427614559235    0.67802615376438
O           1.41059565289678    1.74483561440177   -1.49476652789017
H           0.42323329294497    2.01900942144998   -1.70344503845909
H           0.83791939436688    0.02907020008636    1.24105424398385
O           1.50223392376384   -2.64047258862185   -0.26265030268142
H           2.16727335895883   -1.96580658495067   -0.49119129487754
H           0.79002280788671   -2.48932586352242   -0.89277644157925
O           0.77533741388634   -1.39507595859558    1.93362833961713
H           1.00652573347476   -1.99659071838577    1.17558163858426
H           1.48546783844322   -1.48573773943125    2.57308772789769
O          -1.03364729959753    2.09424247994553   -1.85714403547898
H          -1.37448884996383    2.23388653806553   -0.92571450631000
H          -1.21230712489487    1.17054978116884   -2.06560516492602
O          -1.66365033310841    2.10356147476194    0.67636787314607
H          -0.78258513232087    2.14836351575073    1.05961529154069
H          -1.92821825249162    1.15266419678203    0.75396996561178
N          -1.93620329486680   -0.57869626030610    0.64832221248085
H          -1.28810706886619   -0.68805216534381   -0.12849467513590
H          -2.76982896449020   -1.11422777612631    0.44251511403741
H          -1.49419210142632   -0.99156961136272    1.46114889090636
