    23
        -45.36269692  Gyration_radius:  2.36987749969 Dipole_moment: 4.334
 S          -0.07478316194099   -0.28549538515789    1.24739987581543
O          -0.01739059566872   -1.42986148150033    0.36639583299703
O          -1.33500352134059   -0.04526556743397    1.86746470734548
O           0.32307375826044    0.96372255709628    0.38426416961717
O           1.03672470705572   -0.34953640093635    2.27542124747258
H           1.86833380017174   -0.77816172524102    1.81525119319543
H          -0.33875256333544    0.92065220712368   -0.37369149511380
O           1.03712574571797   -0.92010412113031   -2.07352532169247
H           0.33289759892233   -0.42653323691667   -2.50194083625434
H           0.66182771239117   -1.25035199208802   -1.23660142876979
O          -1.52184333394955    0.37623531290505   -1.28224836203475
H          -1.53189354032483   -0.54765219731397   -1.00915909003055
H          -2.31130713339495    0.79129399839523   -0.82733080598581
O           2.89279071097615   -1.37524631035796    0.94517003860654
H           2.43037681339081   -2.06576045836580    0.45992679830784
H           3.08425129344402   -0.64903992488246    0.28640220205210
O           2.90152320902172    0.55963007378091   -0.81563503503202
H           2.37136891971239    0.06715482741100   -1.47665526029932
H           2.28396150369215    1.16538539623887   -0.39200313021135
N          -3.40355435622893    1.27350424731226    0.34340726639134
H          -3.49238797721526    2.26621697553300    0.51968618472547
H          -2.86538120083126    0.86849914624945    1.10906260030343
H          -4.33195838851297    0.87071406932530    0.36893864863836
