    23
        -45.36307925  Gyration_radius:  2.31235590236 Dipole_moment: 4.762
 S           1.60855249254935    0.57831461402344   -0.53514929890959
O           2.07699006416214    0.74005555668893   -1.86662165117232
O           1.42439112227824   -0.79114333613265   -0.10097094190551
O           0.26043376763363    1.32297521778542   -0.34758645104355
O           2.52317235879779    1.30061351843205    0.46286740795581
H           1.99513758594941    1.41433133113156    1.31912007227458
H          -0.20438023723089    1.27201463899686   -1.28137561468385
O          -0.58375698344143    0.94110109637465   -2.66167677390110
H           0.28158490381563    1.02135829723598   -3.08086507239742
H          -0.71838409972655   -0.04153690404579   -2.51890253203936
O          -0.63296928939046   -1.51291260769293   -1.81868907038584
H           0.20276870762540   -1.50221475941932   -1.33151438030527
H          -1.33220803749334   -1.45078212128499   -1.12480678563798
O           0.09345304263854   -1.03645652447281    2.13801982853270
H           0.49544780297601   -1.73010003504266    2.66474196683907
H           0.57488769618641   -1.03408068535087    1.27636633751562
O           0.88634846097313    1.50214365948530    2.42121781478662
H           0.21068233682407    2.00637386187342    1.95882256050723
H           0.54153774160288    0.58250989782948    2.48513630845535
N          -2.30699626604419   -0.99097841881980    0.26229633783648
H          -2.59292493051398   -0.02824995280414    0.13655243923542
H          -1.67517977177903   -1.02613059206031    1.05605949867608
H          -3.12858846838753   -1.53720574272032    0.48695800976666
