    26
        -50.45612325  Gyration_radius:  2.45584771642 Dipole_moment: 8.926
 S          -0.87154798485880    1.41412610788321    1.30159379565498
O          -1.60747898371656    2.63233096147268    1.44625960003913
O           0.39928123369910    1.62480358585515    0.57867885515019
O          -1.71091375192495    0.44002198916916    0.35007427836404
O          -0.65363338727688    0.62895066416649    2.50298413243185
H           0.07579886926903   -0.72654617209339    2.42219304999415
H          -1.87054634927727    1.05400764979848   -0.41338047161479
O           0.59449184682884   -1.58606845645594    2.32908521635590
H           0.69507588430241   -1.91806036692291    3.22230122379977
O           0.70477405431914   -1.64739397043514   -1.74926037680639
H           0.83298211479921   -2.41262926147165   -2.31080801679784
O          -1.61938663439552    2.41644352818717   -1.28143056519997
H          -1.57498388581895    2.90697144609964   -0.44587167535288
O           0.45538897308195    1.04928226528812   -2.59094619151205
H           0.47884433931393    0.12047988174907   -2.31736513104318
H          -0.10770164330151    1.09158697742597   -3.36629980967809
H          -0.70366052027339    2.23774481864386   -1.55601670947609
O          -1.00009409369864   -2.17291986362204    0.14177266693931
H          -0.48828484796131   -2.22497496350820    0.96540740215541
H          -1.47021721643009   -1.32299168092735    0.20410695194168
H          -0.01038489859070   -1.89346276629793   -1.09253276016075
N           1.92727962542258   -0.36268142891588    0.32612420634112
H           2.90466522447014   -0.09656530786230    0.33918437385906
H           1.27878239948708    0.54568056816182    0.41058839040856
H           1.67391423496363   -0.84430157352884   -0.55394797780053
H           1.66755539755536   -0.95383464183511    1.13750554203951
