    26
        -50.46489497  Gyration_radius:  2.4530829521 Dipole_moment: 3.811
 S          -0.13561665106327    1.82628919552075   -0.12751655953425
O           1.04091599106032    1.12604619095121   -0.61015829120517
O          -1.26134722706509    0.93263654814307    0.08385832672930
O          -0.44872293471855    3.03979838789967   -0.82733243517470
O           0.28286541163932    2.29690392804488    1.36917370703155
H          -0.06333699580785    3.18313166919501    1.40836332647199
H          -0.37892240615866    2.08251828635841   -2.28803724763949
O          -0.07461787470124   -2.68590700494919   -0.35314535947283
H          -0.16795586778485   -3.54659925386682   -0.76225678530467
O          -0.53912846320289    1.50467797334355   -3.05219018459387
H          -1.28904573016243    1.88368197289265   -3.51705011818651
O           0.88542671373749   -0.10546882497882    2.83984888375755
H           0.75631775879848    0.81625350413988    2.58152053861629
O          -1.29235067248626   -1.15421041461424    1.78400465735068
H           0.00880824427487   -0.53792620489923    2.68783552769884
H          -1.44324022753519   -0.37465565534581    1.21661354077487
H          -1.05267722750338   -1.86736895785091    1.17805374173278
O          -1.19131649961341   -0.87786543824099   -1.85424451405011
H          -0.49033906372718   -2.03138391815882   -0.98411670981633
H          -1.39969564033323   -0.25004575470781   -1.13523632117928
H          -0.77236873244969   -0.30593797729038   -2.51727543115535
N           1.83326973622790   -1.01755686945915    0.57541067938516
H           1.55974332485600   -0.14768440413658    0.01218737750748
H           1.22452198688282   -1.79711948997948    0.25313221739026
H           2.81592638417545   -1.23451860213398    0.45590460222773
H           1.59288667265187   -0.75768890586542    1.58265284064135
