    26
        -50.45147873  Gyration_radius:  2.46498642014 Dipole_moment: 6.099
 S           1.40492384870855    1.72571840516605    0.89283633012165
O           0.31249853185092    1.77248626281395   -0.05659658593616
O           2.39091166228755    2.73222571065733    0.75609619178936
O           2.03401349040969    0.30389084080429    0.82169079983476
O           0.83042093174013    1.71133270136610    2.31779500678377
H           0.26703089086171    0.88048391345748    2.35091673406865
H           2.07009322864117   -0.05465424000009   -0.11911013928608
O          -0.52322560580925   -0.47684533272272    2.31709489590039
H          -0.22650140031708   -0.97801660472077    3.07866039541112
O           2.05684218217383   -0.66390857157766   -1.55362220590700
H           2.82061465288325   -0.35461712069335   -2.04387508330158
O          -2.22722216812176   -0.72018301897238   -1.44896005038069
H          -3.04698950268844   -0.65741331482502   -1.94053603488715
O          -0.02711895776707    0.56479670288832   -2.44723936758738
H          -0.82340064676540    0.03876769006288   -2.23613060077371
H           0.02813438410391    1.22461003398017   -1.73507554960070
H           1.25147052513567   -0.24286630001796   -1.99166529561911
O          -2.18558869765758    0.98641111958833    0.56939904420550
H          -1.98046371597139    0.49745195222801    1.37469722968197
H          -1.35161412663317    1.43131330455026    0.32810202518767
H          -2.30509916175988   -0.07881784090097   -0.69499346207246
N          -0.13255962221159   -2.00375209365455    0.22495653348052
H           0.75413203821594   -1.82778507254620   -0.23327035348069
H          -0.19900218382684   -2.99791091873282    0.40383406873175
H          -0.32382251954466   -1.05414877527278    1.49723063179950
H          -0.86847803793466   -1.75856943293924   -0.43223515815592
