    26
        -50.45539230  Gyration_radius:  2.44992015566 Dipole_moment: 7.274
 S           1.68245293939114   -0.37362224065154    1.69376594535001
O           2.97604381902391    0.08788230366211    2.08421633597159
O           1.67136932473057   -1.17180556606936    0.45595786559080
O           0.87508781471732    0.94959168076818    1.21981659417913
O           0.87006131453227   -0.97417746624204    2.72894622083222
H          -0.61679955268315   -0.76952315167630    2.25162394703473
H           1.24018815481789    1.64411986750311    1.75691068252103
O          -1.54733590707969   -0.68073285803819    1.90854930653738
H          -2.11877075139321   -0.74211536509984    2.67525135291909
O           0.18314298188832    2.69917501019926   -0.89974458424462
H          -0.22539757962888    3.27668940622352   -1.54679727583004
O          -1.12379629673604   -0.85027640193068   -2.12635594531285
H          -1.49750447003258   -1.37420899511232   -2.83509820890228
O          -1.82203547295142    1.13616400272671   -0.17970038175328
H          -1.68687497374240    0.62157661294914    0.63458475616977
H          -0.56106199249454    2.21254652640280   -0.46020265050284
H          -1.77900647895783    0.49151471643107   -0.89923002230558
O          -0.67192213174523   -2.33039250709509   -0.07113234280907
H           0.25057440181176   -2.08635276727227    0.15269243561502
H          -1.19738286866684   -1.92978597959818    0.64314498696360
H          -0.99243528540494   -1.48334748401603   -1.34821802578523
N           1.23632608821662    0.33836745676000   -1.59008626115830
H           1.49097023870306   -0.24608356114122   -0.72291379186223
H           2.00828297990628    0.34975369556976   -2.24732618025834
H           0.38385614611432   -0.10579740808697   -1.99736373204628
H           0.97196755768731    1.31084046289133   -1.28129103691476
