    26
        -50.45454357  Gyration_radius:  2.42330755238 Dipole_moment: 8.712
 S           1.97140974782041    0.32881221492875   -1.29303064783513
O           0.49834185328374    0.29723798623366   -1.53918803245457
O           2.65640320297985   -0.54756218349547   -2.18958215335128
O           2.13431972145908   -0.27134519693816    0.17992694076213
O           2.42443132046297    1.68790220109022   -1.16562995248307
H           1.49288725262579    1.95871957322007    0.11940996078129
H           1.82508434132298   -1.18408416080089    0.19261043718088
O          -2.61773723261921    0.11104925693803    0.33728993687151
H          -3.54709203106567    0.33534790414921    0.38759180513093
O           0.93858798139932    2.12726996665781    0.92383528574876
H           1.53732373810351    2.51526139282004    1.56418967929974
O           0.57481528578468   -2.38280773759364    1.01495696354193
H           0.94417331076697   -2.94327061075647    1.69774061409502
O          -1.27403851206307    2.06177905508533   -0.68240830642633
H          -0.72136630611958    2.45143254505427    0.01085971033139
H          -0.63006768298230    1.52468106329110   -1.19221000472708
H          -2.15373598476648    0.91566681009416   -0.06190579649338
O          -0.30556437328207   -0.11500595479851    1.96151044925122
H           0.23398007942714    0.61905109070724    1.60387482062658
H          -1.18904288139467   -0.00018821327519    1.58424554442898
H           0.28055469263622   -1.54047696125456    1.46955074193536
N          -1.03857192221343   -1.62631416909481   -0.99525164933168
H          -1.81087556125476   -1.11364505409812   -0.51879552259699
H          -0.53587496268079   -2.21112702370415   -0.30912759627913
H          -1.36455001939614   -2.16260552464634   -1.79037382417693
H          -0.32379506969178   -0.83577826083821   -1.31008940295543
