    26
        -50.46200308  Gyration_radius:  2.50510359428 Dipole_moment: 4.545
 S          -0.88587592467878    1.40503747664098    1.78668649034481
O          -1.79266908682327    2.00073443164658    2.71244212464475
O           0.42439089226734    1.05024971455049    2.32182988829085
O          -0.57363237395901    2.57721928654868    0.70416010837472
O          -1.42209255260941    0.31234084108257    0.97911142892379
H          -1.64046559118476    0.40152348612140   -0.61655028543783
H          -0.82845654095610    3.31846349703055    1.24210001627096
O          -0.84214383885367   -2.33153215277050    0.81555378468249
H          -1.32171146229846   -1.49783547396926    0.96581586542516
O           2.11332721646450   -0.50430464548989   -1.23996071780333
H           2.93322579778058   -0.41433354592562   -1.72648740929243
O          -1.72502877790232    0.40237358678149   -1.60411060255871
H          -2.64987535611996    0.56287201568642   -1.79413727638013
O           0.69047796944005    1.65899263550976   -1.59153544846415
H           0.47457360938385    2.11181511980905   -0.76486527359175
H           1.61271411747211    0.34804392236795   -1.37757728237362
H          -0.16035108258127    1.28791543929556   -1.88301643374596
O          -0.28645504076445   -1.95470793099026   -1.77247522283506
H          -0.86116697633683   -1.18032382664247   -1.89335606113777
H           0.61372770698122   -1.60363811764678   -1.72632963227002
H          -0.74660209813768   -2.39833017170203   -0.16323521983864
N           1.40348130237211   -1.12204709864065    1.33049191374681
H           0.53716348454046   -1.74752021864699    1.18474601384627
H           1.81805373089318   -0.91827304548357    0.40307243815588
H           1.03604066160090   -0.20891548862285    1.75873361018227
H           2.07935019401101   -1.55581972653328    1.94889317284265
