    26
        -50.46200304  Gyration_radius:  2.50523906026 Dipole_moment: 4.549
 S          -2.35623708115758    0.62674652416543    0.08766261602733
O          -3.66888449025435    1.00316286273931   -0.32372637981875
O          -2.28666716492330   -0.36735313565270    1.15347075089529
O          -1.73126318493623    1.97260690012371    0.75228612940142
O          -1.42062474708738    0.29515953099425   -0.98388367727402
H          -0.12352361374714    1.18188761365456   -1.34934858897841
H          -2.55139209001828    2.41771594219483    0.93403890505299
O           0.71506154228301    1.66821315983983   -1.55576654598418
H           0.53136650029819    2.20428544582831   -2.32784352765802
O          -0.13667110113223   -1.98790885803068   -1.68555769105623
H          -0.72203000519412   -1.21061885740546   -1.71359734388986
O           1.93700549196520   -0.56980692009827    1.47451021466524
H           2.59079126873764   -0.55652339314876    2.17407481617667
O           1.01530540484283    1.85294218721057    1.14459069735926
H           1.13590643513859    1.97956951557721    0.18757555945051
H           0.05814729321587    1.91449031151872    1.26762600410653
H           1.59223806702524    0.36365125048404    1.39757073100840
O           2.17146946633091   -0.67618627694603   -1.36781221606535
H           2.28801217784402   -0.72318056821977   -0.40867446601211
H           0.77587328044694   -1.62299818672070   -1.76096715606991
H           1.81497863208030    0.21092979665141   -1.54263413481659
N          -0.31711630985660   -2.01705597339263    0.91016079218261
H          -0.23608940974070   -2.15993008402202   -0.15569137589905
H          -0.48718912210690   -2.89149701614902    1.39368400290317
H           0.55251479969824   -1.56436482764561    1.24522025345808
H          -1.14098202974982   -1.34393694355268    1.05303163083490
