    26
        -50.46026518  Gyration_radius:  2.4657643794 Dipole_moment: 6.807
 S          -0.93391142948547    1.77394127756084    1.02871595396657
O          -1.11866642656656    3.15983895694103    0.74183108588388
O           0.37816519696631    1.49391893129968    1.63948409046356
O          -0.84009621135546    1.03781395507521   -0.42284719135316
O          -2.00185605957054    1.06435652654628    1.68846960361159
H          -1.85032109622924   -0.51287502101160    1.59760738958698
H          -0.18693814376324    1.58601021792743   -0.86893318507620
O           1.59783970028971    2.20498986622789   -0.48413056537435
H           1.72844815137694    3.15292816966472   -0.53694203140336
O          -1.70552969136673   -1.49929799917291    1.54950761106556
H          -2.22295130706165   -1.86914641824170    2.26650714750329
O           0.35018008427265   -1.70517474221820   -2.45632740828366
H           0.16229549667356   -1.36166967622929   -3.33076363682661
O           0.95244466720898   -1.02899015957100    1.62744714647033
H           1.22584774010479    2.03544882094679    0.42442194484354
H           0.77842332881507   -0.07407106521426    1.81966509449054
H           0.05920583335285   -1.42399045544012    1.59458939136660
O          -1.90847758243386   -1.38445296932126   -1.17579463823664
H          -1.92722263863670   -1.72747559052839   -0.26699044888358
H          -1.80637814462005   -0.42944572614860   -1.05216242877856
H          -0.52272792489779   -1.70491712305983   -1.97420335112380
N           1.97691738250645   -0.55327625998203   -0.69902042586904
H           1.96937828821622    0.47489848961745   -0.76104984043321
H           1.55702716207298   -0.82699286676625    0.27479329740762
H           1.36351168567086   -0.97728776990741   -1.44721104739455
H           2.92539193845423   -0.90508134901196   -0.77666355761753
