    26
        -50.46026518  Gyration_radius:  2.4657473977 Dipole_moment: 6.808
 S          -0.53304319727214   -1.77426658610714   -1.28285126801540
O          -1.29987542225627   -0.59953444890875   -1.73571398247484
O          -1.34553229855111   -2.94056376532936   -1.15334894506812
O          -0.09576868802327   -1.37745063175671    0.23666291423284
O           0.73036050215340   -1.89404341437810   -1.96747593466417
H           1.69805882663847   -0.66326928079717   -1.70724699964529
H          -0.94671814043963   -1.39110560147266    0.68600449411639
O          -2.67232533942879   -0.57850326689422    0.41324707942954
H          -3.41475264937183   -1.18379830460698    0.38498656516061
O           2.26698477358237    0.14133661486725   -1.54843742648634
H           2.89706082052675    0.15578040555683   -2.27050838240630
O           0.91401824438421    1.13332646629667    2.63504927783828
H           0.81709464244602    0.63736815942636    3.44902535571793
O           0.00566359464137    1.61208520090410   -1.42042219616972
H          -2.28666750193225   -0.58329916273813   -0.50542082139596
H           0.92763956216485    1.28851388022045   -1.43352200559771
H          -0.52044404767128    0.83003509591190   -1.72162323952872
O           2.34108615716025   -0.45215836875460    1.12052082633303
H           1.55023656675628    0.60832713273915    2.07468458871251
H           1.61357664411494   -1.05684734059625    0.91362058445605
H           2.58746082574096   -0.09233588378066    0.25230273507958
N          -1.06316056768546    1.64311934550382    0.93442206105246
H          -0.32437328970420    1.43181146484066    1.65926989505163
H          -1.51450146426127    2.52913201220932    1.13616542331870
H          -0.57138077771161    1.69009697952519   -0.04300671897661
H          -1.76069776597734    0.88624329812221    0.89361611992086
