    26
        -50.46026481  Gyration_radius:  2.46690049089 Dipole_moment: 6.822
 S           0.12347279363222    1.64118914061986    1.54413376259628
O           1.12025173067701    2.17661880975420    2.41390783024716
O          -0.56621489963074    0.47521827745452    2.12545987540063
O           0.94048070252153    1.00756308993742    0.28341407239121
O          -0.79583725901876    2.55564259071209    0.91339072266767
H          -1.57908075386683    1.91200347350072   -0.30734289628424
H           1.60305614996465    0.47680916735843    0.73612758019417
O           1.57369640511116   -0.91024344017478    2.08316661376870
H           2.12598262518247   -0.76596363964047    2.85294910595824
O           1.11719939880094   -1.40083935676036   -2.42283805765276
H           2.03986852571048   -1.32088250912018   -2.66812850521293
O          -2.07760043267127    1.46468988605416   -1.04746500802713
H          -2.86815202928832    1.99060152702133   -1.17796741357864
O          -1.94488479028696   -0.83153538333010    0.36779450406849
H          -2.11304640536315   -0.13394182654627   -0.29554314343762
H           0.72857994289748   -0.41328970761304    2.26122046991814
H          -1.58163828493369   -0.33464183381547    1.14242456920924
O           0.27476872851421    1.07561348703564   -2.38671438261571
H           0.68960163647149    1.30164053771982   -1.54137880861426
H           0.73513086285994   -0.48401461804795   -2.51146892414232
H          -0.67341887878879    1.19219536752708   -2.20950492873075
N           0.24189208201717   -2.15450627462319   -0.02937363461107
H           0.09472859633143   -3.15715305935198    0.01979889672681
H           0.65008842650265   -1.88693730827168   -0.96597561356166
H          -0.71405408735486   -1.63222582029239    0.08190659939386
H           0.85512921401295   -1.84361055706042    0.73800669392226
