    26
        -50.45364620  Gyration_radius:  2.66179867411 Dipole_moment: 7.067
 S           1.41568290328244    2.13905249903641    0.91856091520855
O           1.42542496003184    3.51099270283381    1.29893000295408
O           1.74502995023902    1.18960683171737    1.98383514141313
O           2.63558100369345    1.97258303317581   -0.14791662038533
O           0.25598757418909    1.67567421783657    0.16486702277337
H           0.71471287296987    0.68682926569974   -1.00254453265529
H           3.14743589832375    2.74974749227274    0.05033241104482
O          -3.06936453295296    0.04846782803852   -1.55697740714022
H          -4.01523507297356   -0.08672976650023   -1.49650707969707
O           1.15528209997231   -0.01475428297859   -1.55452822688524
H           1.87777012467982    0.43730217156461   -1.99442362798860
O          -1.00248987206133   -2.01606129048022    0.95901839978752
H          -1.42992606295664   -2.83251463651765    1.21804564338943
O          -1.08399107479478   -1.73879172079136   -1.61256810437138
H          -0.31754453831255   -1.18821346105839   -1.82459124024307
H          -1.07853679938192   -1.95731875199981   -0.04500923279200
H          -1.85890497556367   -1.14712519022907   -1.73716681005549
O          -2.12716164524199    0.61277050818559    0.87189638479676
H          -1.33449304656935    1.13956543768918    0.66867624235769
H          -2.78022366135356    0.38067618519993   -0.67202359291536
H          -1.79673974584076   -0.25642854915088    1.13805663127885
N           1.51895871119435   -1.08938198976580    0.87932079315083
H           2.27088362133157   -1.72552117470649    1.12011427566810
H           1.53021783676223   -0.83420192428959   -0.13579365294471
H           0.58547215356522   -1.51030672033081    1.08405906990941
H           1.61617131776344   -0.14591871426416    1.42433721431484
