    26
        -50.45364633  Gyration_radius:  2.66181330333 Dipole_moment: 7.060
 S          -0.96003969223407    2.44364799299300   -0.72780723730771
O           0.47089877745583    2.72926856738819   -0.85202059182733
O          -1.81095196471714    3.20515159316034   -1.57815060522042
O          -1.32474447826097    2.91276733025266    0.78882695634078
O          -1.18989471901785    1.00369602588697   -0.68968468707263
H          -1.05890116113768    0.46234198325977    0.80715788673123
H          -1.75811059402213    3.74179141980081    0.61520614525060
O           2.04629908830553   -1.29025153367278   -0.36970516503592
H           2.79466678221408   -1.88267239346324   -0.44311298564841
O          -0.78558068256886    0.28345826095172    1.74755123271027
H          -1.31998541631970    0.87945459869026    2.27578789708432
O          -1.34989189214157   -3.07571930210446   -0.75194992047193
H          -1.32491948414874   -3.86753768010810   -1.28960027807786
O          -0.21546983956110   -1.08111227876307   -2.10865457996995
H          -1.04283007010541   -2.33714605718262   -1.33273468446525
H          -0.65693071039730   -0.29900552396922   -1.73371044779461
H           0.67048761534070   -1.08661410113291   -1.72074875569013
O           0.26723713820348   -2.28685509152616    1.22352454769439
H          -0.20189922147936   -1.51914207736942    1.57858502066514
H          -0.36829964673608   -2.70110500050949    0.59865380835238
H           1.38535607197473   -1.73649833586292    0.24781137941495
N           1.57377944182534    1.10180652665400    0.76045139213208
H           1.91564691183358    0.25382843686060    0.25585541634652
H           0.76167036544664    0.80693434993807    1.35143769170143
H           2.31181982843129    1.52510795098848    1.31194840642098
H           1.17058756180226    1.81440435890199    0.03508214774561
