    26
        -50.45364623  Gyration_radius:  2.66182027654 Dipole_moment: 7.066
 S           1.45662268366315   -0.92966995325069   -2.10654585245350
O           0.18942998474494   -1.59827360941333   -2.40963540875867
O           2.27813545785867   -0.63887904335431   -3.23241122823548
O           2.28333751536708   -2.02970432133912   -1.23494888631680
O           1.24496446574814    0.15283982676201   -1.15205616490701
H           1.30520525079547   -0.40841462672706    0.34209900264438
H           2.89242861098937   -2.35019340108417   -1.89190508754691
O           0.15125502823216    3.13468272828977    1.41405449124609
H          -0.23580050559577    4.00530707082574    1.50825113216912
O          -2.36712123267712    0.35930596049489    0.50721526666709
H          -3.25474474979569    0.53897796045753    0.81740528778318
O           1.21442376704849   -0.94736483024261    1.17412990213955
H           2.00946317589193   -1.48278423611573    1.20736103252676
O          -0.65339203217533    0.78483552849424    2.39890909316771
H          -0.33340638603201    1.69144979323607    2.19476015557740
H          -1.74742045311936    0.55572909169306    1.27837085956700
H           0.09324956463798    0.20718445868210    2.18823976395211
O          -0.61066181181735    2.10577614746240   -0.92400594512626
H          -0.04421168513759    2.84346304454336    0.48987409531244
H           0.11944754834493    1.49584754200477   -1.12920226678104
H          -1.34298395947659    1.54270711071424   -0.63741748007604
N          -0.95028151623933   -1.82821375589753   -0.14844651176869
H          -1.63785036515790   -1.05658404672260    0.00105556310998
H          -0.52952973006330   -1.74598936422797   -1.15483185788125
H          -0.15142305045806   -1.66577921883395    0.50815738509616
H          -1.37913556560355   -2.73625587649044   -0.00847637110098
