    26
        -50.44166768  Gyration_radius:  2.8218201152 Dipole_moment: 5.895
 S           0.91755793627954    3.06557730652693   -0.41934532173126
O           1.79366090499325    4.18932947969126   -0.40706603858017
O           0.96853157069534    2.22374379626679   -1.59922245284869
O          -0.57574873274556    3.68319954650631   -0.37847686836256
O           0.95851659676689    2.22862559570627    0.79740719199666
H          -0.59978860206027    1.66726145625228    0.69073774508571
H          -0.36912552332798    4.59516166853022   -0.54941805605773
O          -1.22878685874853   -3.10117719891814    0.92291923062854
H          -1.04532896444788   -3.92145913240155    1.38223835459868
O           1.42345812558454   -0.23322656779884    0.74174103356355
H           1.41449317420003    0.79288586440598    0.83618984853751
O          -1.43979450400578    1.17354230942178    0.54808904954639
H          -2.08951724757611    1.84891792219640    0.34725464848932
O           0.02689888497113   -0.14134149952495   -1.36146060966877
H           0.40700282630284    0.74208766313740   -1.63111637638301
H           0.95157962230627   -0.34819332627119   -0.17883987438405
H          -0.79169792244747    0.09703045728960   -0.89235317498519
O          -0.53164040234553   -0.87416876860721    2.14732921625957
H          -1.11978891881803   -0.17821123213699    1.80920315823104
H          -0.86060975242498   -1.72450650577373    1.75888748843765
H           0.67213445656014   -0.55784031376459    1.44050752403046
N           0.30838723685605   -3.07461055817139   -1.29189261694304
H          -0.00054345107869   -3.68602580109086   -2.03715384976412
H           1.29762914844562   -3.23701106908857   -1.14844356678839
H           0.20130549977000   -2.11725599998548   -1.61664299475513
H          -0.68878512370631   -3.11233508238018    0.08892731187525
