    26
        -50.45364612  Gyration_radius:  2.66195906898 Dipole_moment: 7.066
 S           1.40224608372382   -2.33423436219913    0.09439604400851
O           1.46847868295490   -2.10275024088034   -1.35016700168540
O           2.48851462163331   -3.07163090182600    0.64506829170070
O           0.09112574953716   -3.28248419388022    0.28114150453216
O           1.02229509999479   -1.10900404371220    0.78879864991353
H          -0.56840340882531   -0.97592681242364    0.84333758113885
H           0.50563079360376   -4.12905949307264    0.41065373684009
O          -1.54362158886889   -0.97753125415550    0.64341883861984
H          -1.85446882814652   -1.83247855809979    0.94719385081969
O           0.06561518185969    2.56348332449336    2.29705212551448
H           0.38014634327820    3.43594602592775    2.53479583761889
O          -0.14859954706631    1.92806307835904   -1.49951810576944
H          -0.29375260789537    2.72589022085913   -2.00822927923348
O           1.77783079128733    1.47735214514397    0.56648650565738
H           1.32512951516055    1.66306601773921   -0.26781701987715
H           0.78519780336409    2.14598618201347    1.76323552607657
H           1.65281971012496    0.52478156238858    0.72195028325945
O          -1.78012175975468    1.83606753697878    0.50710841687173
H          -1.22703172118829    2.17558814883549    1.24524189011696
H          -0.79863620658906    1.95582173181013   -0.72884875256401
H          -1.88734832893152    0.89307482727232    0.69366054938936
N          -0.59141810397672   -0.69921954135808   -1.85184130348220
H           0.32246499642119   -1.28279297072584   -1.70732111760760
H          -1.16472274645076   -0.84985734802905   -0.98905280630066
H          -0.34896730608574    0.31577636803584   -1.89099752459517
H          -1.08040318950817   -0.99392744945660   -2.68974672108075
