    26
        -50.46846776  Gyration_radius:  2.39952501641 Dipole_moment: 5.641
 S          -0.69531746740136   -1.65948957618131   -0.27416585344274
O          -0.26879301450290   -2.99334311966574   -0.60044305403016
O          -0.64820156318733   -0.76037238125889   -1.45288999284686
O           0.09082324583392   -1.07272381853906    0.80510637414094
O          -2.18247897996929   -1.69496946519600    0.19079579062347
H          -2.38007171004925   -0.79144839599503    0.53657801713976
H           2.16345265607920   -2.30736831339152    0.87972323607431
O           2.26901726306438   -2.45599833012548   -0.06484241385230
H           1.39884902784978   -2.82923876437112   -0.33844273175911
O           1.27054399723620    2.13934542777784    0.18783744396586
H           1.84195078776860    2.82929909343870    0.52714032361676
O          -2.68424667064268    0.81396298904836    0.92941891710375
H          -3.62301463109520    0.96429375671133    0.80544004878973
O          -0.12830622352138    1.15022969777422    2.14191556365319
H          -1.07715722660051    1.30730111182707    2.07141393781623
H          -0.01586979770585    0.23917551555761    1.78633970928065
H           0.75232371253887    1.79821683961938    0.97739525965128
O          -1.28873240178277    1.77125669067108   -1.05891714714025
H          -0.43872845471922    2.10749545342838   -0.74316107043843
H          -1.11213000859369    0.85232130640134   -1.35744595797646
H          -2.22177325125308    1.27559567130610    0.17452351496385
N           1.83089644379283   -0.11882889956997   -1.23632397093729
H           1.79500653622585    0.72359831578429   -0.62362402443855
H           2.16584692419083   -0.98484670616517   -0.71891401186963
H           0.80885088873381   -0.35615972073926   -1.47045807205457
H           2.37725990771043    0.05269562185397   -2.07399982603201
