    26
        -50.46021512  Gyration_radius:  2.60086533292 Dipole_moment: 5.803
 S           1.61408906201326    1.50880813184195    0.04791488790875
O           2.37671790010143    0.50729147114366    0.79231279182688
O           0.21516290104298    1.51104079684962    0.40422296526458
O           1.84298512208986    1.37636524351444   -1.38289862509410
O           2.19612323069226    2.91744819276659    0.46625757533113
H           3.07584935464737    2.88932714860709    0.10402882260533
H           1.04318104424264    0.16031122249567   -1.99996238575656
O          -0.49816957391830   -2.28377827131590    1.88591642852359
H          -0.17022184080466   -2.41531205377223    2.77688638223094
O           0.56042725092112   -0.66671551339958   -2.27923687838868
H           0.82744676287137   -0.83690168210160   -3.18412539049398
O          -3.47462677298099    0.22702671503512    0.07343527581149
H          -4.08322489911091    0.95638961997315    0.19842325868131
O          -1.56354537643239    1.10101591263384   -1.57917841582888
H          -0.95204356575625    1.41598742499925   -0.88773302811775
H          -1.09095843361792    0.37829966727865   -2.01046929517758
H          -2.84253754776409    0.51903837559131   -0.62402560576802
O          -1.52993405899563    0.07022189431174    1.93949000174486
H          -2.31632956022952    0.07168279488572    1.35109479282406
H          -0.98017943506655   -1.39565423770955    1.91048277411505
H          -0.88538245143034    0.65354117581070    1.50344193517782
N           1.33160514080150   -1.75422110932505    0.09137991299941
H           0.91473956698098   -1.53238201138433   -0.83449953688962
H           2.01214822618996   -2.50177017769588    0.00244189789373
H           1.80629704666356   -0.85682834374027    0.43477190640275
H           0.57038089677761   -2.02023237719117    0.79962758218150
