    26
        -50.46021521  Gyration_radius:  2.60082004294 Dipole_moment: 5.814
 S           0.90936776312937    1.45567460164048    1.39210241587028
O           1.21893827938507    1.00964001643173    0.05453456417640
O           0.90953194043263    0.35850883719963    2.35898337094598
O          -0.32787777457906    2.21711834406793    1.47294340715055
O           2.06860085643994    2.43751843549711    1.82820010667694
H           1.74648332405045    2.77529617970833    2.65769446947223
H          -1.53357433158536    1.46701897073919    0.77818420945701
O           0.17645841392961   -2.99750006522162    0.02669736085322
H           0.81236080400267   -3.56421265105277    0.46610544576890
O           0.24269693049512   -0.46703706819562   -3.44385983736725
H           0.78259811501510   -0.06424465988176   -4.12522182269643
O          -2.24085868674579    0.88617587870289    0.38145013462535
H          -3.07480786668579    1.32361591952319    0.56096246251123
O          -0.60342741752836    1.51805221591363   -1.86526703956134
H           0.13313960088990    1.47619733025083   -1.22726639581943
H          -0.15731952579663    0.27919353275958   -2.93958039648286
H          -1.38355290455300    1.27332917815029   -1.35225350765027
O           1.62600284037484   -1.33438911763467   -1.29317128704872
H           0.72805415918208   -2.38819481660021   -0.56174221601960
H           1.16448850971924   -1.12955130324381   -2.13548629029381
H           1.61088032717194   -0.50424231038815   -0.78664401632168
N          -0.98013426765661   -1.21738051736876    1.55714881573804
H          -1.59170755244283   -0.57727690096753    1.01266379865108
H          -0.55704052862414   -1.97268896248921    0.92294752851021
H          -0.17845487897749   -0.61906987584800    1.94192888089576
H          -1.50084614903696   -1.64155120168651    2.31794582795940
