    26
        -50.45981089  Gyration_radius:  2.52890559928 Dipole_moment: 7.017
 S           0.84124101195035    1.02958487468981    1.75421557253012
O           0.74461102760455    1.44865689224232    0.37375526640266
O           1.97836575151521    0.13773727083796    1.98153075822875
O          -0.38733344045961    0.44412920195673    2.26449273223971
O           1.10559874765619    2.33162144727077    2.60565495702628
H           0.99845281930071    2.01912607188187    3.49807711409131
H          -0.84199826912646   -0.95495875527480    1.68348035340459
O          -1.03134676867777   -1.85913311756377    1.30636031274977
H          -1.62645350933948   -2.28168581689034    1.92731708518935
O           0.87713600253813   -0.31196838811396   -1.61625964288775
H           0.93506183708919    0.46195033981275   -1.01734228498286
O          -1.70891117870006    1.79815098324953   -0.74463633170343
H          -0.89877462242465    1.81605019571428   -0.20676298969138
O          -0.63642614029881    1.50542265609529   -3.30867797377919
H          -1.27799680204677    0.84206333028634   -3.57367256828289
H          -1.42537524054662    2.04988540632656   -1.63963539541257
H           0.14255008164137    1.01991486273632   -3.00667964999128
O          -1.65847969549331   -0.81173835765918   -1.22960532968540
H          -1.64396080842197   -1.26521439535752   -0.37524833384310
H          -1.87726702867448    0.13083973424065   -1.02313496239826
H          -0.09197319060049   -0.56003398182056   -1.59916875785815
N           1.51494620389057   -1.83551777433216    0.38619451591700
H           1.83017367932197   -1.07630362500260    1.07545319013205
H           1.36978717171494   -1.32702310385891   -0.55471294614422
H           2.18266052696077   -2.59584174942722    0.32344691028574
H           0.58571185348747   -2.15571420181469    0.71555839884204
