    26
        -50.46731848  Gyration_radius:  2.4918707323 Dipole_moment: 3.592
 S          -0.07054794129758   -0.96697546080892   -1.77062133214141
O          -0.07992509052246   -1.34082658093809   -0.36491515033384
O           0.95817956043041   -1.58137711022366   -2.55716937924777
O          -0.16717027495154    0.48130337817810   -1.92909702462646
O          -1.46629951355773   -1.54511800777632   -2.33111959902222
H          -1.26582267253962   -1.71146488701758   -3.24665842562213
H          -0.98743440866480    1.31460243992038   -0.74912034320463
O          -0.46130227215091   -1.41747041836422    2.28602974510791
H          -0.10330992661968   -1.62796772437382    1.40562373604444
O           2.71390276506640    1.24975593425183    1.03463011878899
H           3.17283958555845    2.08076900675013    0.90093889507937
O          -1.47735948778518    1.60144652431279    0.05601684703955
H          -2.11146871784592    0.87576824076376    0.21236545721269
O          -2.58526171272939   -0.87105606616319    0.27524309105568
H          -1.41722260768579   -1.45329219973026    2.16953182799222
H          -3.15445041997431   -1.15068648505917   -0.44368965766276
H          -1.67667150026537   -1.11251199470693   -0.01458332399620
O           2.44018461712997    0.43405173385383   -1.46040110797863
H           2.49406101590866   -0.46514316400960   -1.80516160743330
H           1.53289035283398    0.70046404858395   -1.69254931316192
H           2.66053696507157    0.83539360996573    0.13891462321369
N           0.21533940257327    1.14925499097621    1.99628448810622
H           0.00039486464705    0.14408268893553    2.23777652880839
H           0.09012312758482    1.74957552754250    2.80390066127609
H           1.20485428215987    1.20399185149178    1.64564401392850
H          -0.45905997237541    1.42343016364147    1.20218625077174
