    26
        -50.46731854  Gyration_radius:  2.49191430541 Dipole_moment: 3.590
 S          -0.06940283707660    1.57863224043419    1.25536150708789
O           0.79333260302919    2.71425505296127    1.39839490273788
O           0.60532787805850    0.29056751365446    1.21827312193994
O          -1.04197337095567    1.69291386153903    0.17224133273833
O          -0.94835179448773    1.51302456801269    2.60423708677011
H          -1.00413081610109    2.42921743964121    2.85646055412587
H          -1.74774778489826    0.28489987698695   -0.35545586618951
O           1.24203936134256   -2.28358441000107    0.83346103354985
H           1.34020435581599   -1.33525610891731    1.02986649284952
O           1.61849849165296    0.18128028576411   -2.71005956687217
H           1.42665100253004    0.49561498581937   -3.59519795702408
O          -2.01273244287286   -0.64870803943988   -0.52496408255705
H          -2.00566224690837   -1.05649945617738    0.36202540773877
O          -1.31290321782125   -1.31994262547402    2.01480995175323
H           0.51641233173903   -2.57029147612451    1.39905841874479
H          -0.59471312984453   -0.68350737743896    1.79814417794141
H          -1.80742804472198   -0.90076194374632    2.72103450048266
O           1.06864566606131    2.33844292170551   -1.29303820633997
H           1.52520245267334    0.97387376811982   -2.12684193602697
H           0.16479545396839    2.17810693501537   -0.96823739854765
H           1.52245991887858    2.66908709385000   -0.50879904937929
N           0.14546986566245   -1.72349384649689   -1.53583916367721
H          -0.03262037024160   -2.50689140518254   -2.15462767605768
H           0.65451652683962   -2.03915069700118   -0.66626315330192
H           0.73039696259352   -0.99637645307881   -2.01996467332035
H          -0.77628681491251   -1.27545271443185   -1.20407974916430
