    26
        -50.46731851  Gyration_radius:  2.49191879039 Dipole_moment: 3.590
 S          -0.20915677350119    0.80062357117216    1.84077793330839
O           0.60586051478666   -0.23733251486959    1.22913697200453
O          -0.97929513848125    0.38128887557648    2.97453740912648
O          -0.97009474222679    1.53270361533952    0.83232469544709
O           0.87115640511497    1.85682318233767    2.40081573496098
H           0.41461573093996    2.24367186055815    3.14107102587869
H          -0.29568218930291    1.64625301367253   -0.68139320537888
O           2.07789995149175   -1.71023433893853   -0.45698334373478
H           1.54450458579141   -1.46630218043635    0.31989573388451
O           0.26119370318180    1.56765326620772   -1.49024099450661
H           1.17462518371441    1.60404242017131   -1.14754431645109
O          -2.19177706081417   -1.96988501786407   -1.14641523685093
H          -3.02220249532029   -1.86369077469462   -1.61361711931846
O          -2.64787870985305   -0.51019169978584    1.00422444256593
H          -2.22533415273097    0.34284336439620    0.79941151915159
H          -2.32470225630105   -1.52263407007106   -0.27500186725494
H          -2.36380798455566   -0.67780099441837    1.91059908467514
O           2.46866009545496    1.19536701233775    0.05219603921154
H           2.74444200302784   -1.01678546641393   -0.51575752883324
H           2.71955614470924    1.92258117703806    0.62425616307637
H           1.80566166551439    0.68507704996733    0.56972022634956
N           0.10495992923689   -0.97043380179458   -2.09710246549611
H           0.89663783294405   -1.37559177282908   -1.52788740741848
H          -0.79916652095888   -1.37985800613206   -1.75069656860080
H           0.10851384219937    0.09092596209686   -1.91279294061839
H           0.23081042592743   -1.16911375262621   -3.08353397517686
