    26
        -50.46731852  Gyration_radius:  2.49180579131 Dipole_moment: 3.589
 S          -1.79364757715212   -0.92216510465472   -0.05950470607699
O          -1.31264417117585    0.43336488119417    0.15674587785221
O          -2.62408058540944   -1.44758856783231    0.98391908567182
O          -0.70536917989035   -1.80644899972995   -0.46670856180730
O          -2.73769334669259   -0.79206832757593   -1.35877359461894
H          -3.36517543919077   -1.49551438558932   -1.22668741125223
H           0.54914150368987   -1.11650692495056   -1.30942660668219
O           0.06819244231160    2.72818136662919    0.08376225229610
H          -0.55876012480457    2.04537513325956    0.38089222050569
O           1.18174515326262   -0.50953545268075   -1.75874381595630
H           0.60388179826398    0.13430050207672   -2.21114494369159
O           1.90418715883512   -0.36710948129852    2.49584367159316
H           2.56352121290398   -1.01191728256215    2.75779963238627
O          -0.84705988254411    1.21388796440899   -2.30952173819354
H          -1.54239795039698    0.88697849954866   -2.88283274269233
H          -1.10688644526198    0.92158938347131   -1.40686845381420
H          -0.13195763028270    2.84495238426984   -0.85160034761561
O          -0.19131308802458   -1.92820105785507    2.12903809540580
H          -0.20447690891160   -2.07555824616502    1.16657983976426
H           1.05708554519585   -0.87261353321810    2.43225263375971
H          -1.11607629695309   -1.74167016687673    2.32980728270583
N           2.08570790542383    0.98221674706354    0.18886069755319
H           1.37305668814664    1.76109194449601    0.21024410303467
H           2.04237298723181    0.46477152580857    1.10303979453181
H           1.79093769314023    0.32066991229595   -0.60842956704233
H           3.01770854828076    1.34951727645358    0.03145729236236
