    26
        -50.44493596  Gyration_radius:  2.70487668842 Dipole_moment: 6.281
 S           1.91845694779342    1.90475337144572    1.21740008460810
O           2.39600901582104    0.58530307618843    0.79429530979712
O           2.71031994008800    3.00385604162595    0.76985058429528
O           2.05732174222820    1.88952088112368    2.81945679846568
O           0.48342104441004    2.02002243943326    0.95564578038009
H           0.06131901984820    0.81046573262497    2.01419519127517
H           2.70143964086435    2.57769025367740    2.94875846989880
O          -2.51712329186865   -0.89842075668392   -0.65492954230329
H          -3.44917254737535   -1.11490650810792   -0.68158299376386
O           1.03945673255215   -0.74842833745493   -0.78995738163141
H           1.69510142085988   -0.22182847915024   -0.15436587348347
O          -0.02053449804288    0.01549582389316    2.58135489680745
H           0.76044968681801    0.03745596483134    3.13810396864761
O          -0.63469726106754    1.10552265077156   -1.21811911158872
H          -0.28068411562308    1.63577517639057   -0.46587322662068
H           0.37860435337137   -0.01398219163558   -1.10307609245589
H          -1.46174720472251    0.71149450528399   -0.89948663076969
O          -0.46866511783263   -1.89678641218269    0.83298740193872
H          -0.31963378655199   -1.29447997004107    1.60478562862315
H          -1.33264388743583   -1.63332375475554    0.46263540062000
H           0.45720115142459   -1.34423006674696   -0.11778535010455
N          -1.18799621825391   -1.47628902553392   -2.92335179357535
H          -0.89794786013747   -0.54527619027512   -3.20072973387281
H          -0.35091833712861   -1.99749884213769   -2.69052221999594
H          -2.11682530948168   -1.19076966057315   -1.51661268017570
H          -1.62051126048385   -1.92113569204124   -3.72307688503572
