    26
        -50.45406769  Gyration_radius:  2.52804006578 Dipole_moment: 5.861
 S           0.51942407412321    1.99378887572143    1.01791461961435
O           0.03259621918816    3.01543452405325    0.13006323859519
O           1.92298196429080    1.63344898424616    0.77489316474550
O          -0.30139892463726    0.80377928117981    1.10091660243358
O           0.49776905629807    2.64029095465161    2.47938109815777
H           0.56729734053856    3.56883437217765    2.28197944203178
H          -0.14758678211586   -0.68104825390997    1.60115480392310
O           0.09991122801656   -1.61889235781285    1.83186724178449
H          -0.15434350613002   -1.74086360724423    2.74719512503159
O           0.63935195427239   -0.99657970667132   -1.95954410269601
H           0.69581649317285   -1.38770682193241   -2.83189998546158
O          -2.96196925264695   -0.19995864575739   -0.78035348526598
H          -3.60530451495387   -0.16496397883749   -1.48975599463202
O          -1.01296417119341    1.36589924051817   -1.72465305154594
H          -0.30665656238938    0.71453742822379   -1.82718984894162
H          -2.27618028633603    0.47203968838801   -1.00917782359436
H          -0.69008516362212    2.02607910397726   -1.08563219336227
O          -1.20273254313267   -2.19007539341884   -0.61150715934275
H          -0.86756883042009   -2.15554409241251    0.29606807354726
H          -1.93596365690491   -1.53022761641093   -0.63652935087291
H          -0.11346735255401   -1.47498243350794   -1.48112542056903
N           2.14701423023705   -0.84520925898579    0.23556675223542
H           1.69944653474942   -0.94349724267747   -0.70636719574738
H           2.10394584669901    0.22010283820500    0.48105537036853
H           1.54959715246927   -1.33728052914320    0.92539309480456
H           3.10106946297976   -1.18740537262080    0.24028697476085
