    26
        -50.44493616  Gyration_radius:  2.70490661753 Dipole_moment: 6.288
 S          -0.39863564290423    2.22493938251622    1.91894103549230
O          -0.96358201218498    0.90819590460718    2.22699458952315
O           0.34597708878007    2.82397676403070    2.97824063468380
O          -1.67933237651585    3.17162683558332    1.69557471086841
O           0.28035933922208    2.18229427819703    0.62346107962739
H          -1.10356753821810    1.85566296367427   -0.23680688816304
H          -1.56904427230314    3.79059578437825    2.40963238001670
O          -0.11785601324990   -1.08873461278291    1.03234570820013
H          -0.49390875207305   -0.29646756912849    1.61673053500542
O          -1.97044517208022    1.56087994724385   -0.58609651825869
H          -2.60976018035084    1.89962436975497    0.04388177634944
O           0.71232114137966   -1.07277635712950   -2.43142178888077
H           0.87669272424540   -1.24753160924463   -3.35813037069271
O           1.75011808205086    0.16370165161828   -0.13566447832269
H           1.37280983013275    1.03368126187381    0.13492440573586
H           0.73200175005933   -0.67858346301817    0.60338232534931
H           1.51733315202934    0.05243973867545   -1.07065910717254
O          -1.58968521590856   -1.01059728945782   -0.98119832154438
H          -0.90669014773856   -1.00875411502115   -1.67872327576054
H          -0.80820995093575   -1.15321086151032    0.21670510500219
H          -1.88188217802144   -0.06807518281892   -0.89784061886737
N           1.74543568854909   -2.91675778009304   -0.76443165730553
H           1.09339986056218   -1.82960313956347   -1.91163366891517
H           2.40864782690520   -2.34417159973799   -0.25422879327964
H           1.02849549970256   -3.20597942630641   -0.10945199609831
H           2.22900746888610   -3.74637584634747   -1.08452683260587
