    26
        -50.44493636  Gyration_radius:  2.70471637619 Dipole_moment: 6.282
 S          -1.26689573265554   -2.30598543188845    1.36596637565476
O          -0.90755191965342   -3.21956489519618    2.40121893234886
O          -1.58082769210184   -0.94834972496177    1.82017171778105
O          -2.64919402986397   -2.85749541839094    0.75675837291992
O          -0.34168346575562   -2.24853462424884    0.23394829046417
H          -1.41154748337558   -1.46206614786444   -0.76668035122330
H          -2.82654963913810   -3.58227101462289    1.34698306835527
O          -0.08681747622675    0.92124931924433    1.18627957080266
H          -0.74111286309150    0.17319481552520    1.53780683970523
O           1.41866505599512    1.19954229769616   -2.02958246026114
H           1.80692439341168    1.45944736183051   -2.86514352016777
O          -2.10083430747523   -0.91074659038194   -1.19215389659872
H          -2.91503602528119   -1.16400243230262   -0.75253672775142
O          -1.08985766064873    1.51081044781491   -1.02140639270570
H          -1.59317658508432    0.67083760214684   -1.16912272746767
H          -0.56135709719939    1.27577785458294    0.29476680565278
H          -0.29476387982142    1.43781238191645   -1.58309818125431
O           1.66100008118477   -0.57871628486908    0.12869328535555
H           0.72197089594269    0.37668258966644    0.83456448336636
H           1.05379118323547   -1.35505435782010    0.16197718922460
H           1.65732853076887   -0.27818827260368   -0.79346144532726
N           2.46311000136976    2.46053614465146    0.10735396452361
H           3.17096769996508    3.18066105041792    0.03638631548883
H           1.84025901413847    1.75188735735796   -1.31870569285472
H           2.86607254127418    1.67190769578972    0.60110020010683
H           1.70711645003728    2.82062827655649    0.67791597383258
