    26
        -50.45445995  Gyration_radius:  2.74389736386 Dipole_moment: 5.594
 S           2.78534053217460    0.10543786606308    0.64405534546449
O           2.27828813562584    1.48332819609050    0.67804121958928
O           2.39838301832165   -0.59602739612223   -0.55332780038571
O           2.44502272335263   -0.59868720539965    1.87300248913599
O           4.36730837794439    0.22750423079710    0.62561423486854
H           4.55124475299854    0.63462382191704    1.46684650327913
H           0.90739092406218   -0.89796351579596    2.06095482847787
O          -0.08314817600613   -0.94793973059101    2.18222153041998
H          -0.22240112121490   -1.06837554527617    3.12257320514498
O           0.04756123986228   -0.62981698602092   -1.72211157451267
H           0.99153746403115   -0.72285866893813   -1.46840507334481
O          -2.96608378580109    0.46981517523677   -0.20329561982985
H          -3.91100602563903    0.31600049018508   -0.23685200926102
O          -1.93671914007143    0.94786912220900   -2.68789278613106
H          -1.63923503441494    1.60655073141708   -3.31617799903520
H          -1.20440428890009    0.31440191538987   -2.58195922632159
H          -2.69626529538612    0.68162580068954   -1.11612098134283
O          -1.51464673056469   -1.94509876006505   -0.00696362214340
H          -0.99847490068291   -1.87229985973103    0.80857827701366
H          -2.13906191300436   -1.20068363813854    0.01167203740239
H          -0.43380226976952   -1.35582763319674   -1.26466817581383
N          -0.22771759808333    1.03801578443056    0.33909407945359
H          -0.93129601346496    1.76914939999022    0.30805245242742
H          -0.22542490825559    0.47310415291037   -0.55827021308825
H           0.77710431398501    1.38775583156045    0.47615719415457
H          -0.41949426109773    0.38039641039017    1.11918168437134
