    26
        -50.45445975  Gyration_radius:  2.74352270409 Dipole_moment: 5.594
 S           1.28139138876674    0.35046502129913    2.53407674070717
O           0.87497405040855    1.68112239804754    2.06394407250241
O           1.98167078475835   -0.40184811129434    1.52450935351930
O           0.14904132715372   -0.35827140998570    3.11490268176088
O           2.30235971555745    0.60507686634629    3.72193327909694
H           1.75694864260868    1.03911918661205    4.37105004628316
H          -0.96559947059150   -0.78085159216047    2.08102136445992
O          -1.68939923625440   -0.91149511530996    1.40478286802931
H          -2.49599659054382   -1.02644514152903    1.90913264295941
O           1.38036222004550   -0.65296681879834   -1.01910731690688
H           1.79190485053071   -0.66144233442287   -0.12765209335990
O          -1.76491599850189    0.20782333134716   -2.43111351546183
H          -2.33537428344144   -0.02678613582769   -3.16405765083627
O           0.78147326196033    0.74425580556361   -3.26637791282890
H          -0.90170495872267    0.43261338341835   -2.82415756387112
H           1.43751986823990    1.39520101991344   -3.51713416495096
H           1.19641758470456    0.17674262235896   -2.59220599967651
O          -0.88043736297540   -2.06741621225996   -1.01293904661582
H          -1.17914289168858   -1.93658650287190   -0.10162953613480
H          -1.32631866079591   -1.37958154114490   -1.53500624817497
H           0.75054177966223   -1.40868220958529   -1.03888451867325
N          -0.44637099924003    1.02225475524498   -0.03682161122482
H          -0.90027623792961    1.69215533607022   -0.64977619065725
H           0.26727533530613    0.44404458590987   -0.56654668692805
H           0.07598695591795    1.45664280477969    0.79343243295434
H          -1.14233108475657    0.36485603831911    0.36462457396152
