    26
        -50.45446002  Gyration_radius:  2.7439336115 Dipole_moment: 5.596
 S           2.70018192354158   -0.94023948515403    0.09211201056344
O           2.42532771293144    0.36784808109591    0.62965631735851
O           2.23419193437598   -1.08924482850319   -1.29266747146019
O           2.20676092415471   -2.03140578779236    0.92145842087535
O           4.27767616974803   -1.10267641195846    0.03683088396162
H           4.38071135426141   -2.00160208111181   -0.26073900497121
H           0.64950713529154   -2.01919293830724    1.17466872040203
O          -2.91012098916920    0.45450960291887   -0.61904479779049
H          -3.84995841117341    0.60533535158358   -0.51120802378834
O          -0.34938782798097   -2.02900188625973    1.19601024174155
H          -0.59401224080924   -2.92766865754026    1.42127156679423
O           0.21627134281393    1.77143126569829    0.42229612752984
H           1.12367734307192    1.43361914866818    0.58562708330278
O          -1.60232032033640    2.74099861790806   -1.34148350453887
H          -0.90530683939279    2.63662936288191   -0.66911346054306
H          -1.21689850788496    3.24594161707340   -2.05813403809801
H          -2.53607278606193    1.30159903629885   -0.92487768258296
O          -1.56297678210797    0.40377334245130    1.86302502084728
H          -2.16282305791197    0.35966608409220    1.09973349135625
H          -1.13706654485482   -0.46412351419472    1.90994410537435
H          -0.33385232158796    1.45965481571625    1.17609394280983
N          -0.23230255768381   -0.43852977329895   -0.99909937401336
H          -0.14913004238345    0.51616023610802   -0.54514959020195
H          -0.90614266573004   -0.42405332674546   -1.75823276378179
H           0.76161697124304   -0.72169001432117   -1.28661660589908
H          -0.52755090637614   -1.10773786730904   -0.26236161525423
