    26
        -50.44145362  Gyration_radius:  2.45423466481 Dipole_moment: 2.175
 S           1.46746794774617    1.01258402272321    0.19370772010398
O           1.58526071526839   -0.35273147544827    0.66481046973969
O           0.45811813498867    1.80298703193064    0.85689359925337
O           1.37683344279312    1.09799221330696   -1.26959016102753
O           2.85332935775309    1.72040123646636    0.56354630142416
H           3.52699885277744    1.18315167981895    0.15591957274084
H          -0.07518277037074    1.85122677006151   -1.54793167443152
O          -1.01741999786127    2.07578618659862   -1.34633395178444
H          -0.94082608953669    2.55605281263235   -0.51079506612325
O          -0.82124449197996   -1.91692441324385   -2.33445323278271
H          -0.93857492166690   -1.54544438894121   -3.21108464149737
O          -2.50852623303232   -0.87158173630365    1.54173410293038
H          -2.53052417932037   -1.82557893728928    1.64071171295966
O           1.65865326300551   -1.47568588440680   -1.74007063710507
H           0.16994626365553   -1.90799288058330   -2.16000146783802
H           1.64028162368423   -0.50947043292711   -1.88837689578565
H           1.69193325883247   -1.50142608911908   -0.76755009328896
O          -1.15745405838722   -0.26177865990422   -0.46406850549094
H          -1.25420638077079    0.70668534013122   -0.83014214459201
H          -1.81693518387094   -0.50215382645050    0.31542648822151
H          -1.13999967564499   -0.95580751432144   -1.22679348069239
N          -0.38465338683522   -0.06527781967050    2.76454612840555
H           0.34598736813028   -0.71675084278517    2.49411045165068
H          -1.75014250840276   -0.53528170970401    2.14995954444816
H          -0.26066712235272    0.16526076917573    3.74244397306234
H          -0.17845321861381    0.77175853822493    2.21338190749869
