    26
        -50.46313991  Gyration_radius:  2.55663369507 Dipole_moment: 3.428
 S          -0.75601302595837    1.23979732580284    1.71315466958150
O           0.66432546648710    0.97447049897686    1.44627202103484
O          -1.49945663540887    0.00998333722583    1.77018248015833
O          -1.28354549647311    2.23970898784959    0.80229657867193
O          -0.81578642754632    1.90564673369676    3.14900222672066
H          -0.67371406026167    2.82114815459651    2.93294056901694
H          -1.18863157343152    1.72530496257256   -0.70303344947752
O          -1.09864118359870    1.34524762781794   -1.61714825179673
H          -1.54654010907385    1.96241742906750   -2.19882993345379
O          -0.75269989601903   -2.75433814056683   -0.59496114887988
H          -0.60502546954869   -2.93958224754059   -1.52342973078485
O           2.90528191444318   -0.81449129329447   -1.17112180656244
H           2.88152209733739   -1.10820295444475   -2.08254726120860
O          -2.48500934231193   -0.81690623622688   -0.56072528316878
H          -1.51089030358230   -2.10256819313473   -0.56272285675889
H          -2.32091048612112   -0.53799618343441    0.36198320626952
H          -2.08171002645465   -0.11914676515466   -1.10373325770513
O           1.60939490651966    1.46612586597502   -1.02830401932683
H           2.54305637017476    0.11202253745256   -1.16746473354565
H           0.74633046707031    1.42008510955336   -1.47141874406422
H           1.38794006971196    1.45821435053335   -0.07846502945052
N           1.17718827552533   -1.50997533533710    0.74805626762145
H           0.88653416752875   -0.55057439780601    1.09309510371941
H           1.51018484489878   -2.06077421758435    1.53211784835776
H           0.36776232122687   -2.00302099982522    0.27678923148963
H           1.93905315485339   -1.36259595675813    0.03801532351527
