    26
        -50.45192353  Gyration_radius:  2.54527430688 Dipole_moment: 8.318
 S          -1.84001843612047    0.30012189255055    1.83688270391497
O          -3.00805884654850    0.57805991601895    2.60354573051183
O          -2.05116139257158   -0.33943371185587    0.54407627170562
O          -1.03163565979642   -0.83586252268069    2.69568415436416
O          -0.87314091924802    1.38875505363043    1.72507149311404
H           0.59953525936886    0.83409985714832    1.72384567944906
H          -1.62265040931778   -0.95065966859929    3.43281028057699
O           1.46155901901923    0.32986855218761    1.68271584432588
H           1.70083277593425    0.16109654480619    2.59501613604314
O           1.60492055814230   -0.92142155756082   -2.17260964341218
H           2.42268629680380   -1.23591921330100   -2.55751935946738
O          -0.64248085742799    1.83743947557896   -0.95116412303988
H          -0.84571718410870    1.79273805535828   -0.00234161515149
O           1.94610967478302    1.31913278338085   -0.94563973004214
H           1.80734850496097   -0.02105939929421   -1.76492257467621
H           1.02223956866971    1.67137191662428   -1.02061513922902
H           2.06037793120541    1.13834195202164   -0.00444227542938
O          -1.09030287452058   -0.38934414584196   -2.60323027713166
H          -1.38359819242941    0.06336815804692   -3.39486493607453
H          -0.14381812796936   -0.56376691103379   -2.71020025588331
H          -1.06187569886996    1.05846184320919   -1.35300825850011
N           0.20518979552656   -1.46504169924774    0.11743527542079
H          -0.78185151996237   -1.01866592015762    0.15237092654300
H           0.13725779825914   -2.42879145850354    0.42609653351253
H           0.61803453297005   -1.40359542296493   -0.83356118499056
H           0.79021839321545   -0.89929437959641    0.77856836357747
