    26
        -50.45192346  Gyration_radius:  2.54520572563 Dipole_moment: 8.320
 S           0.68062176160169    1.68267347644357   -1.88528063088959
O           0.90859086494221    2.39782379469497   -3.09606320527663
O          -0.66233977752649    1.15025097154418   -1.69076589132777
O           0.82077825916453    2.80390245475064   -0.70005601798189
O           1.68916812003887    0.68835568413011   -1.52916919820871
H           1.90233939427720    0.63704849765680    0.02911879528705
H           1.00136586728670    3.58251384125843   -1.21678562900395
O           1.88441796050806    0.68505907185945    1.02730962960340
H           2.46718453084672    1.40998513624471    1.25728513073825
O           0.31809030106203   -1.65853106154884   -1.35766714507829
H           0.83112438856333   -0.86393077265828   -1.57880002022971
O          -1.39524209755826   -1.49715530793104    1.98807662541146
H          -1.53276118851107   -1.80993564104181    2.88197628900062
O          -2.38072253066448   -1.44123256072825   -0.61184225950046
H          -0.61305992121127   -1.38136716986444   -1.34061210270181
H          -2.72028715853347   -2.23468180089523   -1.02751449755184
H          -2.19551162203068   -1.66230295450725    0.31256911626784
O           0.99228103015729   -2.01764493494276    1.16921036449201
H           0.81192955650536   -2.04537978095742    0.19450523032052
H           1.53608478638374   -1.22975126156379    1.29213538040605
H          -0.46629723275922   -1.78756355931930    1.72233464819384
N          -0.79237154039985    0.92059551579107    0.85301613865953
H          -0.86441837555489    0.93467770326736   -0.22832837486430
H          -1.24091346780220    1.75319591226131    1.21944122362785
H          -1.21476252106475    0.05973999751206    1.25208121384835
H           0.23471063231889    0.92365473847408    1.06382519675789
