    26
        -50.45316322  Gyration_radius:  2.76467852996 Dipole_moment: 6.491
 S           1.16371727313017    2.56438658926920    1.12934454666583
O           1.59643201227933    1.42542142898580    1.94106541586072
O           2.06635244866796    3.66726423114420    1.10175440568467
O          -0.17115810829812    3.11215168799264    1.87624138477481
O           0.66206908399887    2.10541099768651   -0.16483630778415
H          -0.87665179448046    1.65336235183516    0.14329507041199
H           0.18912254543285    3.85193117277945    2.35362437735153
O          -1.02147148716899   -2.80945240889170   -0.08729318894305
H          -1.50584329828658   -3.62804895894343   -0.19813126162080
O           0.88573811366338   -0.15544310312561   -1.59587096827597
H           0.99181587166289    0.77179206347074   -1.31527842643812
O          -1.70531464813495    1.21648213933837    0.46383118536355
H          -2.06250731622964    1.82699023108075    1.11139666732091
O          -1.74204776447698   -0.61332956668613   -1.66226463785346
H          -1.67882247882169   -1.40866047570053   -1.10613812064323
H          -2.02319206225974    0.09939744520663   -1.07323840011968
H          -0.06048624980802   -0.23878337081895   -1.86294242243417
O           1.30312986216098   -2.84234727758925   -1.47461440788280
H          -0.17248638780550   -2.92227373023521   -0.56598541377860
H           1.38358786690135   -3.24020962763652   -2.34262308201141
H           1.38686747589235   -1.88171560144708   -1.60890781086626
N           0.27744295899794   -0.54560040964550    1.00835306568337
H           0.61680326097332   -0.59021649510390    0.01573145228626
H           0.89369930280737    0.19441073353205    1.50275196937319
H          -0.67917434811873   -0.14708795015247    0.97384561811165
H           0.28237785730064   -1.46583209634496    1.43688928975649
