    26
        -50.45192357  Gyration_radius:  2.54518261995 Dipole_moment: 8.317
 S           0.36400596134691    2.38212689993389    1.02096316972107
O           0.75521683378803    1.98500822863617   -0.32600309222043
O           0.43018800607039    3.77462064070004    1.31410468990310
O           1.51035035690144    1.69625403234465    1.96795732750842
O          -0.86117115459000    1.69938864199880    1.42753894742305
H          -0.55235152722127    0.23536040079839    1.91495027213715
H           1.86289048691029    2.46696949911341    2.40103157329227
O          -0.20610195955074   -0.67486526839886    2.13992420510919
H           0.10472844117217   -0.61207050535415    3.04406351567287
O           0.20378299604076   -2.42076217526026   -1.49839457759326
H           0.30239350603663   -3.36895855577872   -1.58221025705587
O          -1.86896353918540    0.65576717740265   -0.87747200171058
H          -1.60372230643575    1.16162435229854   -0.09181238469233
O           0.02376674626843    0.00366819175310   -2.84759568782979
H          -1.13106179542896    0.72805686799445   -1.50554528113156
H           0.02253389845695   -0.93487077669896   -2.60892412473709
H          -0.52553477629418    0.09583941127813   -3.62697006194046
O          -1.76833001056558   -1.81525071244553    0.04656404531765
H          -0.61592616652415   -2.26666474864796   -0.93089537191173
H          -1.42150016834526   -1.63128886670923    0.92829144945201
H          -1.98078897664221   -0.92218160987359   -0.32823563112738
N           1.40846091278017   -0.46651454481508   -0.00463957358187
H           1.09343249500011   -1.16014138068633   -0.71039427205858
H           1.13665747753652    0.54312247248429   -0.29021797641469
H           0.90379112309659   -0.64630341525801    0.89676051213835
H           2.41325311937986   -0.50793423682051    0.12716060633131
