    26
        -50.45192350  Gyration_radius:  2.54517038682 Dipole_moment: 8.317
 S           2.49286858828054   -0.67484049571351   -0.42413621217497
O           3.81996619944789   -0.86524778300880   -0.90562521290323
O           1.98479964781598    0.69116455274200   -0.44949042250864
O           2.56971172364131   -1.02250540875225    1.17427483250914
O           1.48951033123819   -1.61065362420405   -0.92417559235900
H           0.43277050179347   -1.95006135345380    0.19146358168165
H           3.49453544621890   -1.22880964504596    1.26363372298384
O          -0.37958931342520   -0.04150918469723   -2.13249606437592
H           0.35865629805920   -0.60731820605242   -1.85238667394808
O          -2.40883642994294    1.35637332982271    0.71035124150865
H          -3.22617171504326    1.44609517935124    1.19996632262012
O          -0.18002275444674   -2.02180118337993    0.97779776800933
H           0.21241440108364   -2.68624888350593    1.54570326041380
O          -2.30883658353039   -0.89272540466269   -0.54426080516943
H          -2.47108725422482    0.48519873932107    0.20545730251897
H          -1.69213747606346   -0.62779144101035   -1.27417674838946
H          -1.80018794309204   -1.51754392781762   -0.01278786431801
O          -0.65362454471496    2.55023818507327   -1.08589062811091
H          -1.42825870357796    2.30945469070770   -0.55708782434454
H          -0.16489659090183    0.85395041312841   -1.82222620804085
H          -0.97628324975321    2.99969096122141   -1.86785045982722
N           0.15519879459118    0.62565489393626    1.33617434384881
H           0.87163935164283    0.78798218545416    0.53923618759462
H          -0.75062186266458    1.09236534816588    1.13546725521843
H           0.00316934353328   -0.41137137988779    1.36704304454390
H           0.55531379401297    0.96025944228423    2.20602183303694
