    26
        -50.45316424  Gyration_radius:  2.76367402511 Dipole_moment: 6.491
 S           0.88438944516652    0.94580775287686   -2.74181332660514
O           1.85465269240042    1.11766918136963   -3.77185823789930
O           0.03723191443484   -0.24065117813317   -2.87569917730388
O          -0.14095660456482    2.19690167320285   -2.89565816893601
O           1.36825112299029    1.07304518476493   -1.36822013620288
H           0.13013636219895    1.78338056230891   -0.57477717195709
H           0.01389817378893    2.43643234414979   -3.80322999137733
O          -0.73184367015883    2.01375069161880   -0.14563365135089
H          -1.13643525727537    2.64401986468191   -0.74455412683217
O          -1.67308333758241   -1.30353935906720    2.11155407093393
H          -2.19234900714792   -1.54777939309996    2.87819895329685
O           1.57435017991973   -0.58509483483448    0.73365262119975
H           1.81914336418967   -0.01512536537534   -0.01795319698926
O           0.55834477153845   -2.82408187716722    1.90082491847245
H           1.11283238876822   -2.17385640921126    1.43415892459036
H           1.07216266371853   -3.12146172207697    2.65310748276119
H          -0.92147567937093   -1.93270742599058    2.07353422202266
O           0.02905534875169    0.90531075002208    2.31720332719039
H          -0.68177536695288    0.24223309392867    2.34895153821442
H           1.23025976030394    0.03008989355646    1.42423716706355
H          -0.24992773947226    1.56082667240655    1.66416075687854
N          -0.82184088915779   -0.66717419153810   -0.51453382922463
H          -1.13768602717591    0.28210321678326   -0.24209116793795
H          -0.54029805660900   -0.60267637172184   -1.55782086032072
H           0.06641905170457   -0.84842415946615    0.01516586055933
H          -1.52345563444131   -1.36899856392628   -0.30090683027373
