    26
        -50.45192352  Gyration_radius:  2.54521239269 Dipole_moment: 8.318
 S           1.18619412588787    1.93553255932294    1.30229670139631
O           1.34222086482016    1.67357215453599   -0.12319463743976
O           1.72283562772347    3.16483035989734    1.78208704579350
O           2.10036553362838    0.77285108022098    2.00517555540214
O          -0.16764338564430    1.61187802295804    1.74387006549021
H          -0.32672951230586    0.06400627242483    1.97892654449443
H           2.71003147430212    1.30761195247305    2.50332065122726
O          -0.28478440289036   -0.93326669528911    2.03092368003276
H           0.08355638212924   -1.12730248895926    2.89388186543114
O          -0.69113525459032   -2.06761639810117   -1.84205325395747
H          -0.91291137831131   -2.97016587496285   -2.07015766254835
O          -1.60129799244968    1.34882431359985   -0.55670131876349
H          -1.13725811301686    1.60303302381423    0.25789181394649
O          -0.15226484286974    0.48592719535500   -2.80253297135954
H          -0.92053853457802    1.29340595704531   -1.24784677316626
H          -0.44472670688071   -0.43168300472491   -2.70154429289105
H          -0.68940464913993    0.87730952178759   -3.49242400252809
O          -2.25853435351273   -1.14972178583375   -0.01354809603439
H          -2.18945023564615   -0.18456881051816   -0.23018047251729
H          -1.37911960265743   -1.76447075114257   -1.16937514101816
H          -1.81756194759463   -1.23805512694445    0.84045905325887
N           1.17525510334124   -0.87608269899285   -0.23076284096718
H           1.23198816899803    0.20105571018732   -0.33683322187592
H           2.11727009964937   -1.25185745776848   -0.22075953294984
H           0.69561134119183   -1.04059806857367    0.68702668297174
H           0.60803218044743   -1.30444897190322   -0.98794546134857
