    26
        -50.45406809  Gyration_radius:  2.52668048191 Dipole_moment: 5.885
 S           0.66112827613352    2.06741424551439    0.74359301237436
O           1.68585775432422    1.35055567902954    1.51507620108333
O          -0.42290441960510    2.55482976095249    1.55360938886039
O           0.26861495181831    1.29532518377874   -0.41679122474489
O           1.39724643888413    3.36599327569360    0.17200498515347
H           1.19016400099416    4.01566021784539    0.83617922151233
H           0.94809863110452    0.30439003783911   -1.43382133198776
O          -0.48067640371940   -1.98095558601965    1.03785627056359
H          -0.88415957118263   -2.77218158000194    1.39611750930719
O           1.44457587433680   -0.39920702039750   -1.93623114786650
H           1.80570487500226    0.03464661483964   -2.71003397094589
O          -2.76196977372804    0.04960079939890   -1.33903573594452
H          -3.69344189197768   -0.15982653965988   -1.25613318853778
O          -0.92865995479068   -1.87337584927943   -1.49634049518151
H          -1.63559036818012   -1.18701194117992   -1.55010444532017
H          -0.13436446926691   -1.44088026379542   -1.84161669361800
H          -0.70765350991076   -1.96730798619661    0.05152470472924
O          -2.05520195985867    0.43924298981535    1.20875413620469
H          -2.47325657567904    0.34045318018543   -0.44101933499922
H          -1.44482658079678   -0.30015108702050    1.32886180911400
H          -1.53864581372638    1.25160284394962    1.35532676863079
N           1.97807073737787   -1.02499135216093    0.64541560786434
H           2.79133818842129   -1.50593223402674    1.01239905889911
H           2.00192837221302   -0.94500787294451   -0.38791514863418
H           1.08552994353258   -1.50495719204770    0.91081013632180
H           1.90309326827122   -0.00792831411308    1.04151391716753
