    26
        -50.45316413  Gyration_radius:  2.76363839535 Dipole_moment: 6.485
 S          -1.76183504505074   -2.29565455095486    0.90515448196515
O          -2.91451610870891   -3.12748080721886    0.79834116457817
O          -0.55404946334364   -2.81955360513719    0.26469512701427
O          -1.39826842257734   -2.25622336082756    2.48824134310787
O          -1.94655104530878   -0.88570103451274    0.56609215742656
H          -0.96688301169347   -0.09586114988649    1.60691208538333
H          -1.83151693494375   -3.04949342270873    2.78490377452495
O          -0.20389448253462    0.27059896755551    2.12050176578331
H          -0.23178805064580   -0.19736525309454    2.95708387309720
O           2.47193534742816    1.50777603817856   -0.75919523128730
H           3.19738179096964    2.12233965642206   -0.87340201120791
O          -0.99981746582042    0.75004074779926   -1.34135769305946
H          -1.61158719705956    0.19777058710919   -0.82127116309900
O           1.06854548184276    1.19249002887040   -3.05421638364893
H           2.05406985480139    1.40491870805017   -1.64057977064499
H           0.21007922233337    0.97349104025661   -2.65048830055938
H           0.89716126169568    1.89937973374255   -3.67813126573176
O           0.10432263500549    2.45568390488142    0.38746459265308
H           1.01246659312085    2.23725835759276    0.11630202969642
H          -0.79671169294184    1.52492015025670   -0.76513631082547
H          -0.05644135503160    1.95625297528610    1.19909211093519
N           0.89041762875350   -0.75789426649897   -0.13254725661112
H           0.29044685513245   -0.18717358058696   -0.77801305254144
H           1.84498758071549   -0.81078720150783   -0.47379199027383
H           0.84272349967490   -0.29853638436067    0.79571139390541
H           0.38932252412221   -1.71119627887951   -0.02236546069789
