    26
        -50.46365710  Gyration_radius:  2.44737851482 Dipole_moment: 8.570
 S          -1.02522347673551    2.04114486544717   -0.83854649222854
O          -1.37357448252149    3.05606453493668   -1.77612978861239
O          -1.62290589984253    0.73417352041485   -1.08426538933983
O          -1.62390509818366    2.52318200663103    0.57770287064998
O           0.40769483050558    1.89934795898816   -0.56415965108352
H           0.47129102694235    1.40488970909440    0.91814422549765
H          -2.29508795142197    3.11476723670228    0.25870129068905
O          -0.30531970802824   -2.62161431106837    0.41794354257696
H          -0.70527252112839   -3.43142849252113    0.73450488124364
O           1.92154600972639   -0.01751070153768   -1.58267056656872
H           1.47976614077080    0.82695632877255   -1.34862524071653
O           0.54143572010954    1.01267675796384    1.83455396784871
H           0.45746691350617    1.75371699177403    2.43551478218628
O          -1.65107831363277   -0.55725159446639    1.19017784339790
H          -1.01608361377641    0.00122959369963    1.66579760299177
H          -1.79317039836388   -0.08443312755030    0.33828366472365
H          -0.90173587180801   -1.87006118989796    0.72537703117525
O          -0.27512154925407   -1.33503342689316   -2.14451877098742
H          -0.86421364462708   -0.59184583430731   -1.90814856472437
H           1.19945046343026   -0.55313794995400   -2.00456136968114
H          -0.35996649038379   -1.96974990428785   -1.41975549195597
N           1.88735683659739   -1.08501931816761    0.74141946896769
H           1.15824941745742   -1.82563373933911    0.67077702426685
H           2.00089095406517   -0.64351597914869   -0.27675248354618
H           1.52472780999127   -0.32740047954887    1.34620850552097
H           2.76278291660283   -1.45451346573812    1.09302710770694
