    26
        -50.46365710  Gyration_radius:  2.44738568441 Dipole_moment: 8.572
 S          -1.30923529826450   -1.14134207606545    1.70407942503039
O          -1.89361503441852   -0.76570328430930    0.42221513046501
O          -1.95155308740595   -2.22351616058605    2.37249277984992
O          -1.50632899136212    0.14478870062071    2.65463363400473
O           0.14784120451191   -1.24779009327288    1.58480407415209
H           0.64749445878937    0.23418531838703    1.60143678666345
H          -2.26558825664461   -0.14993208392609    3.14342771382406
O           0.98983065855774    1.17014466649942    1.52825793745679
H           1.04587873650668    1.49153671875029    2.42883708985574
O          -0.05895633584015    1.32482463656121   -2.31974929797923
H          -0.31765393883636    1.98853533169756   -2.95897266461492
O           1.39835989346242   -1.95900840432488   -0.63640199975527
H           1.00326654732804   -1.90212352039446    0.26007131148817
O          -0.80723133516203   -1.41804139840449   -1.94771655469385
H          -0.65651547716736   -0.53174099764205   -2.30432168372122
H           0.61121337340630   -1.96160394417279   -1.24191716195601
H          -1.33862653050660   -1.28464859408434   -1.13837537821709
O          -1.22393698909083    1.71840387608436   -0.04897941837751
H          -0.50651070602506    1.78634284116308    0.60065177874051
H          -0.57767387678395    1.52167404438892   -1.47868002661433
H          -1.62051691749221    0.83415787985893    0.12523455551599
N           2.06593859290369    0.49815606372131   -0.87935804179949
H           1.37995464061472    0.88211555389804   -1.56279214670346
H           1.85468822382047    0.89561352045674    0.05268506333165
H           1.86910146541062   -0.59719040430963   -0.80299093839008
H           3.02037495968689    0.69216180940344   -1.15857197756322
