    26
        -50.45490185  Gyration_radius:  2.54740045939 Dipole_moment: 5.609
 S           1.28802232403990    1.85197210775289    0.70323437122789
O           1.03973494676243    2.78081638518945   -0.36880068252693
O           2.43184015843648    0.96649524561351    0.44426661920700
O           0.13775738651807    1.08426036095977    1.13111185008800
O           1.71728382352031    2.74222938228699    1.95660790796971
H           2.05971351450544    3.52390381227556    1.53448046012710
H          -0.24558621253196   -0.32930144313764    1.72831499445213
O          -0.34306804434226   -1.27296731884216    2.03045499088786
H          -0.60580594262567   -1.22855686955491    2.95050414786599
O           0.14033606031778   -1.26732502471478   -1.88911659432379
H           0.38819665113919   -1.41129678043752   -2.80302256451722
O          -2.97252685893275    0.69553407168987   -0.60015645662974
H          -3.67860046137107    0.62071649793529   -1.24375927106693
O          -0.57061689436806    1.17973122142817   -1.77947664597093
H           0.00496249826182    1.80813917354155   -1.30403792919900
H          -0.12328743047128   -0.28362319115702   -1.83358287189111
H          -1.42125076691053    1.17019855487736   -1.29075051681933
O          -2.02401114089829   -1.79935676171379   -0.14534325058197
H          -1.54349838693794   -1.69488204653632    0.69052372945407
H          -2.72952961577405   -0.22215060363149   -0.34955090327001
H          -1.35069905796328   -1.76385965881404   -0.83957682982301
N           1.69518011467536   -1.46420645991254    0.25951698785377
H           1.14899723651708   -1.48341331833161   -0.64004048615351
H           2.06383112599358   -0.44020089595797    0.36087858592916
H           1.03633250891570   -1.62925844685207    1.04077337405606
H           2.45629244350680   -2.13359798395989    0.25654698365551
