    26
        -50.47071348  Gyration_radius:  2.41574415022 Dipole_moment: 4.137
 S          -0.96665628400117    1.63629762446220    0.70431134176874
O          -1.24764097707380    1.50772587833166   -0.70523221004215
O           0.43060073487035    1.88874078999236    1.01366026616675
O          -1.48864296011809    0.50282013337054    1.47113272714217
O          -1.76152770789905    2.91169257159784    1.20275637038247
H          -1.36939718152681    3.07660714735833    2.05329866707212
H          -2.21974149584165   -0.48479393697644    0.37366686873827
O           1.67640066547144   -1.80474673788951    0.56645121877585
H           2.20685058768478   -2.51031529894966    0.93806738601125
O          -2.50202834336952   -0.91253765028500   -0.46786195180433
H          -2.65932834204902   -0.15812323279579   -1.04692020012950
O           0.45955224843677    0.52024923996521   -2.49572415818028
H          -0.21464546828729    1.04199939594402   -2.01514363584789
O           2.28029108187866    0.75882864440973   -0.59592118993469
H           1.69462099677574    1.28687065629658   -0.01983003023183
H           2.30749292406209   -0.12573615085331   -0.20759060185830
H           1.29112589088726    0.70013520170885   -1.99591934012157
O           0.77409433118053   -0.31301824042974    2.49226719200312
H           1.11427481379614    0.55676443617931    2.23398508042549
H          -0.17982167504952   -0.21653062267279    2.29460405824082
H           1.32252679391813   -1.28357685718139    1.34619267905093
N          -0.18691756620339   -1.74772043137934   -1.43189318955799
H          -0.22744335597971   -2.55925428190775   -2.03802263741913
H           0.10942289036237   -0.85306628044000   -1.98253867368498
H          -1.14421455912915   -1.52909175506376   -1.02044655429722
H           0.50075196720810   -1.89022026278787   -0.66734948267254
