    26
        -50.47071338  Gyration_radius:  2.41580544335 Dipole_moment: 4.144
 S           0.32706239828035    1.97297534243859   -0.33167475670071
O           0.69110685027628    1.78129784629258    1.06204300497366
O          -1.05422534848415    1.67963063670119   -0.62899280107077
O           1.24181984100003    1.26085877752225   -1.22682429607201
O           0.52900741943547    3.51507606418727   -0.62774384356865
H           1.36606533954081    3.69380432295858   -0.21312196352634
H           0.28571327962583    0.39327953488945   -2.25104857745275
O           1.00257871373187   -2.12759138588492    0.92573614261955
H           1.53280853371078   -2.88764943466367    1.16760653230886
O          -0.48536694892335   -0.06444560464255   -2.65918311001195
H          -1.19947770597370    0.57094318896220   -2.53488219512331
O          -2.50592754883660   -0.16190184041281    0.63432768821148
H          -2.17805084981942    0.64274614417140    0.18400874697803
O           2.55888332517266   -0.07433776281624    0.59286548080718
H           1.64831877614112   -1.37632347864799    0.77297835759768
H           2.27546378559606    0.30606017270218   -0.26341070334938
H           2.17722526065598    0.55700786222114    1.22105771551380
O          -0.54712991400396   -0.20526384292510    2.40687292594651
H          -0.00695254578989   -0.95224050426633    2.11669311550548
H          -0.11990185546025    0.59295459513950    2.04070189756298
H          -1.98449030259890   -0.18741240587816    1.47172297009849
N          -1.10884148832176   -1.81683013237025   -0.78067071965694
H          -1.56283062319511   -2.66494564704722   -1.10038107901981
H          -0.81600703405550   -1.20645658922278   -1.60215900318277
H          -1.78538014071834   -1.20333671454471   -0.18280409040781
H          -0.28147122698904   -2.03789914486345   -0.19371745897719
