    26
        -50.47071356  Gyration_radius:  2.41579591788 Dipole_moment: 4.142
 S           0.53200381446074   -1.03617438652625   -1.65893407216810
O           0.50497527733451    0.36958157569003   -1.98359832059229
O          -0.76127721250130   -1.58927256490702   -1.29369970725492
O           1.55017782169743   -1.34507570908936   -0.65251201592690
O           0.97180473419062   -1.79047561843064   -2.97976114090948
H           0.75566550002461   -2.69464754607323   -2.77902875382617
H           2.28176434612786    0.08786662511371   -0.29756220044928
O          -0.83723296202413   -0.20431118693124    2.37581594788854
H          -1.01422176633395   -0.40910446287769    3.29453460372439
O           2.48237330305525    1.04927166526762   -0.21834499620075
H           2.25366854425630    1.38642995380683   -1.09193915543731
O          -1.16541468648085    2.13401606624018   -0.89232421482833
H          -0.59994834859274    1.61042727708998   -1.49554127137879
O          -0.03464437804739   -2.35669861268622    1.16249236289300
H           0.76662124136331   -2.07439830726632    0.67630876505418
H          -0.49707636210990   -1.05212403991454    1.96327614740304
H          -0.68289585109626   -2.42261314303163    0.44522973073884
O          -2.47655752067468    0.02950231503471    0.02031560198578
H          -2.13083169251968   -0.07047310296359    0.91724248937341
H          -1.87166390628353    1.49809088825086   -0.62674165194784
H          -1.97230948755166   -0.59779769572113   -0.53282968816945
N           0.39575149917493    1.90865803062954    1.15818332238319
H          -0.01454076022997    1.14034522565459    1.72317288057072
H           1.30171556465110    1.58000754101970    0.70591600230196
H          -0.28844180706998    2.11569414193083    0.33323035273528
H           0.55053512517910    2.73327507069357    1.72709901203888
