    26
        -50.47071328  Gyration_radius:  2.41581892159 Dipole_moment: 4.145
 S           0.73553508132460    1.04014209917480    1.57698418373296
O          -0.69603565187635    0.93381098536145    1.72435319581710
O           1.16091282766512    1.80492956614414    0.41693218230113
O           1.38850455575049   -0.27020914496856    1.62307655616725
O           1.25588303707507    1.83847146297699    2.84132796825962
H           2.14376691860228    2.06543981697428    2.58705350616809
H           0.17967411604837   -1.36832182843548    1.84329377171046
O          -0.70594936412208   -1.79722898658204    1.89266468929057
H          -1.24503662617915   -1.12176010332752    2.31965572739312
O           0.56913374735815   -1.01949234665372   -2.24172888583035
H           0.93196371778411   -1.48210457831222   -2.99782385057924
O          -2.41659348626959    0.87946712022244   -0.30846077885171
H          -1.95383665748216    1.04101492424753    0.53859833089374
O          -0.37835635274070    1.66238111201599   -1.79619313855538
H          -1.84692409846755    1.33404609867183   -0.97374547903473
H           0.18634184445126    1.85674259063352   -1.02345301734103
H          -0.04674850338821    0.83302580022433   -2.16528316240186
O           2.51607768316711   -0.19382154207585   -0.73306247385030
H           2.34095613895205    0.75862204852181   -0.70107259093890
H           2.25545174584293   -0.47112848771594    0.16887206008128
H           1.35309670426032   -0.75584887266123   -1.67542869359210
N          -1.55125047493685   -1.54124356967100   -0.59890447523769
H          -2.01997044787002   -0.55806389752800   -0.52725005555635
H          -1.19713153795000   -1.76388745962883    0.37999994918020
H          -2.20990379094530   -2.24325945646279   -0.91665534325233
H          -0.74956112605409   -1.46172336114649   -1.25375018597661
