    26
        -50.46192208  Gyration_radius:  2.60661414488 Dipole_moment: 2.692
 S          -0.44024224009198    2.07816186464568   -1.29344806294914
O          -1.81334494394926    1.65377130162611   -1.05955209295443
O           0.05530349981610    1.81134627111888   -2.61528099914756
O           0.42994957793919    1.56970696178397   -0.22654055580486
O          -0.42608980674785    3.66377268064027   -1.13057574325907
H          -0.15045423906410    3.94831367309444   -1.99633636351760
H           0.19754198685662    1.11237705332899    1.30703209625935
O           2.84707928193886   -1.73704346089168   -0.08369490494389
H           3.08764704671960   -2.58486602172853   -0.46040966643314
O          -0.04693755731358    0.76892598815957    2.20284334844237
H           0.26839988355499    1.41810255076546    2.83256637261283
O          -0.81527454884760   -2.19247454640801   -0.17689986525116
H          -0.27437818174790   -1.76233964742835   -0.86538214939825
O           0.88652013840120   -1.88409577390149    1.81652346013535
H          -0.20372703506891   -2.27462593005149    0.59982974590856
H           1.70853222825967   -1.82655530140253    1.29245036495817
H           0.67707596875086   -0.97730628711164    2.08420817574932
O           0.86444146091335   -0.59571476137771   -1.62491882227384
H           0.72974446810918   -0.19532990802845   -2.49137026256911
H           2.26611589273790   -1.30073432150372   -0.73183937183678
H           0.79655976908665    0.17825767638377   -1.02481933438546
N          -2.15684893524723   -0.17686107504489    0.74659745424035
H          -1.58002412384555    0.13030596254127    1.54507836298392
H          -2.08546623817427    0.58186208188113   -0.00210818414943
H          -1.70065972635604   -1.07564606580306    0.33942542053468
H          -3.12146362658730   -0.33131094514486    1.01662157679274
