    26
        -50.46192187  Gyration_radius:  2.60675317169 Dipole_moment: 2.694
 S          -1.03509802512142    2.18909093510394    0.56962500174972
O          -1.95045291711452    1.30416096674591    1.27604048928521
O          -1.53607097650866    2.70533752721662   -0.67394935813755
O           0.28418385635089    1.55649625532242    0.45349734273058
O          -0.81548499738639    3.45448598225908    1.51400621891515
H          -1.14390610900802    4.16439033545605    0.97101959006821
H           1.07552420925993    0.41844066622621    1.28631455350588
O           1.45044767781768   -0.34371513196356    1.79500919693807
H           2.14150279120264    0.02012321988095    2.34958396218901
O           1.97996512488396   -0.55184473514540   -2.62759887520952
H           1.85937103874582   -1.02295023108118   -3.45349336995454
O          -0.87951896769278   -2.01906598391968   -0.81158412071060
H          -0.89002432422553   -1.18499788044007   -1.31731768829167
O           1.72590071102261   -2.12059018127251   -0.40230482480154
H           1.80310653657692   -1.53968504847734    0.36863356309821
H           0.08293752861818   -2.24504907631110   -0.73087342997426
H           2.00986929184908   -1.58772508618669   -1.16977722691844
O          -0.44460227471090    0.48479131612995   -1.81693434966067
H          -1.08285403813537    1.16572546559219   -2.05825017988655
H           1.14833731729138   -0.07531638873062   -2.45652164771627
H          -0.05218935351665    0.84935790272041   -0.99427114914692
N          -1.15605645467070   -1.14277990388826    1.61152658899209
H          -1.71957275148886   -1.68832946184657    2.25344478136953
H          -1.53890521942458   -0.15016778021017    1.51392718289233
H          -0.17930068841355   -1.06048732540813    1.93386084866567
H          -1.13710898610999   -1.57969636788810    0.61638693003890
