    26
        -50.46192215  Gyration_radius:  2.60646069809 Dipole_moment: 2.690
 S           1.38278054385998    2.01089252801787    0.47762518690797
O           0.78318584672709    3.06977166592303   -0.28608838698025
O           2.36588090489693    1.21791978530868   -0.24691253950572
O           0.40538882928585    1.12803092922279    1.12503376704572
O           2.16765592852573    2.71946563700011    1.67037089682696
H           2.04938013168068    3.64114325475923    1.46288370954531
H           0.42244796324205   -0.41018182797805    1.62360235044177
O           0.48781452504240   -1.37886174240728    1.81756567580508
H           0.55602717064273   -1.45607062364172    2.76985860149575
O          -0.39519926059878   -1.23849898153364   -1.95344989178781
H          -0.66790192436160   -0.30861449990889   -1.84133120833782
O          -3.33493974230444   -0.05531437482100   -0.05444455958236
H          -3.98073458714142   -0.12941587505175   -0.75874851676826
O          -1.09205245469735    1.23162586249019   -1.01552622170837
H          -2.63253436073878    0.53315541561807   -0.38350975734529
H          -0.79912638103030    2.10099696704752   -1.31150159895145
H          -0.62980809809382    1.13802955069894   -0.15453093298110
O          -1.65760313284536   -2.20510844559441    0.15295631200161
H          -1.01487004386212   -2.00110213208731    0.84804751010089
H          -2.35506689711122   -1.52535751672266    0.22430108806791
H          -0.94365493650874   -1.73615188926487   -1.29348638174624
N           1.80005616053080   -1.29240089031724   -0.57755499172453
H           0.94416776653699   -1.31149457505498   -1.24758174676933
H           2.56552345626619   -1.85814599356853   -0.92574955002442
H           2.09597566574366   -0.27148058019541   -0.47038895076176
H           1.47720693655868   -1.61283164765390    0.34856011668135
