    26
        -50.46433731  Gyration_radius:  2.5195111816 Dipole_moment: 3.794
 S          -2.05364377198778    0.23787801783571    0.76532426146429
O          -1.38023405280262   -0.42816604212593   -0.33527719282626
O          -1.68030585746211    1.64855272425728    0.84367485279613
O          -1.88381985069335   -0.43978287491417    2.03241808838981
O          -3.59744988097276    0.19579159077551    0.42288057222339
H          -3.98310942443857    0.48002858891441    1.24488215702487
H          -0.29176952534030   -0.73477027488752    2.52276170485689
O           2.02781300881866    0.94108651747160   -0.94540477821997
H           2.75100077376788    1.28414913416677   -1.47063279953749
O           0.49523900017055   -2.13797186155365   -2.71858864778407
H          -0.35296476557502   -2.58476896686018   -2.73210918095738
O           0.69173090503961   -0.72764650885086    2.52707640152961
H           0.94794146576510   -1.30508190407225    1.78355166611482
O          -0.02923467903873    0.52828785716406   -2.43884425712231
H           0.18381415447677   -0.35524213479858   -2.80166835075807
H          -0.69451513130164    0.34446680801874   -1.74841976199818
H           1.23851263757622    0.85814869943548   -1.57243399151177
O           1.01158453907804   -1.55078280714272   -0.05789585789137
H           1.57288957462106   -0.80869684469401   -0.32874611299839
H           0.08927770014639   -1.22083282566260   -0.13071942565818
H           0.80161745783490   -2.17275515845130   -1.79355304851508
N           0.84750382496166    1.61410323066245    1.39114318794877
H           1.38184618172869    1.49339696259280    0.50474941139940
H           1.19313059059441    2.40373009792447    1.92522080419767
H          -0.18819952950845    1.73887135156711    1.15441340616119
H           0.90134465453824    0.69800661321152    1.95619691168365
