    26
        -50.46192214  Gyration_radius:  2.60674337522 Dipole_moment: 2.688
 S           1.37180467029740    1.85594229179657    0.92754539793041
O           1.81379883332492    0.77923245280171    1.80256102295132
O           0.42717576823843    2.76238618026859    1.51910895455381
O           0.93108364833182    1.30648244414947   -0.35997484798356
O           2.66613006386185    2.72505033566382    0.59552005835646
H           2.43272775695452    3.57254852428526    0.96092044919957
H           1.25308640900596   -0.04504043438961   -1.18761314272311
O          -1.37329657510112   -1.61968848588335    0.99562301666417
H          -1.56085638941660   -0.66282853319529    1.02520762062430
O           1.43593248407639   -0.93375099801136   -1.58379450873865
H           2.01673504662779   -0.77866813421478   -2.32950706410822
O          -2.81652547569559    0.39109149458914   -1.74533254398028
H          -3.74055827958998    0.23219825029422   -1.54650857714519
O          -1.49830678478402    1.07804847650596    0.57863773706847
H          -2.42299462713832    0.77705109167058   -0.94276500624906
H          -0.63698375942269    1.13986258378371    0.11179034478071
H          -1.43676439940624    1.79666784102000    1.21816833525328
O          -1.25082288861611   -1.84776637596936   -1.63069857804550
H          -1.45834736942376   -1.85667214127221    0.03611899826051
H          -1.81055810050214   -1.08268491534241   -1.86521908699291
H          -0.33711243771218   -1.56674174249604   -1.78573673244328
N           1.21747941409292   -1.63072619641643    1.04945121245943
H           0.13497288795766   -1.69825443345812    1.12355906085410
H           1.46305916601333   -1.66150034465529    0.04781019662474
H           1.50021832389203   -0.66644211588160    1.41225861438683
H           1.67892263401690   -2.36579709556717    1.57286906839928
