    26
        -50.46192207  Gyration_radius:  2.6064797678 Dipole_moment: 2.690
 S           1.18927389945376    2.04217082841226    0.77475588545792
O           0.98847140846458    3.01296097338909   -0.26509894457733
O           2.33431735342332    1.16471125372512    0.57674449246772
O          -0.00680313978408    1.24564764983509    1.07311841281960
O           1.48495467112067    2.87418946525645    2.10183368724127
H           1.49982464432323    3.76795023752734    1.77429753377819
H          -0.26277053469086   -0.22614464031159    1.69172638933190
O          -0.32761598694115   -1.16700832199429    1.99312818047121
H          -0.63986626150305   -1.13615052006112    2.89811505178308
O           0.33168287804203   -1.44834598829328   -1.81549909833399
H           0.08485969871650   -0.50969899097752   -1.91376551938047
O          -3.04893381847170   -0.03796254827179   -1.35255610620792
H          -3.37135982703249   -0.18785230709782   -2.24258632607587
O          -0.54715272412856    1.11738825365871   -1.48125605114088
H          -0.46115795584375    1.11869834929354   -0.50330345684493
H          -2.24511756353237    0.50493286293514   -1.43688388163901
H          -0.11871606891488    1.94560889897787   -1.72556669604412
O          -1.69678330172176   -2.16185831563816   -0.28539754692607
H          -1.36500072969419   -1.88471436844107    0.58119818691354
H          -2.33164182384849   -1.47366784115493   -0.56270815527781
H          -0.45460234056735   -1.86415188733243   -1.37630615471573
N           1.81440218511660   -1.36288994933750    0.30798514309646
H           1.28613366034622   -1.45131511969959   -0.63801324507855
H           2.09719141628918   -0.33860644570744    0.41824375060958
H           1.14138546380553   -1.57384869807110    1.06104176535535
H           2.62502479780820   -1.97004283084351    0.34675271248922
