    26
        -50.46422813  Gyration_radius:  2.57402166697 Dipole_moment: 3.112
 S           0.75712687923596    1.35620751249381    1.71125372764270
O          -0.32277150381516    2.31659199105872    1.73222309771509
O           1.09064566924485    0.90724162905749    0.35643313519773
O           0.56119377895219    0.21526105153549    2.58383058173377
O           2.02853169444284    2.14779747538893    2.23731216980219
H           1.64821027111436    3.00767905295524    2.38419671246463
H          -0.39491507547128   -1.01160917849038    2.24109569754618
O          -1.03845379530668   -1.70330612344024    1.93325507216751
H          -1.33995753522914   -2.14893739731640    2.72595681911882
O           1.92301503654781   -1.59627466495221   -2.43217403200599
H           2.87448403823419   -1.54927668315674   -2.33271604134469
O          -1.76484968838048    0.13514465335103   -1.78181591533826
H          -2.60953541031748    0.07159835463244   -2.22838800827261
O           0.93386272246596    0.89319081035783   -2.38175445555528
H           1.12723917139757    1.11796239915834   -1.45717768628557
H           1.62072584768944   -0.66821929652236   -2.58823056980813
H          -0.02897635679511    0.81512008466287   -2.42050213421222
O          -2.14061461520959    0.65712554237629    0.75133564550934
H          -1.55589437900379    1.34838210076180    1.12421819810000
H          -1.95740238096809    0.46912419677628   -0.86452214242123
H          -1.94868039458511   -0.15728403987381    1.23812046273644
N           0.10440401672762   -1.36459830769443   -0.50293099254577
H          -0.68369837176284   -1.03025477460758   -1.09001385621740
H           0.82029592754812   -1.79564016974998   -1.12281722390692
H           0.53785796152092   -0.48847348187190   -0.08455207636428
H          -0.24184349826317   -1.94455273692322    0.26836383461111
