    26
        -50.46821215  Gyration_radius:  2.44349658475 Dipole_moment: 3.040
 S          -1.21130851252086   -1.46026892003953    0.18552023946351
O          -1.02973991451603   -0.80550146014326    1.47231375102226
O           0.02151308878866   -1.50237513965725   -0.57645667043453
O          -2.31681805264079   -0.92374063604897   -0.58405157295797
O          -1.60405269761544   -2.95696260859987    0.52449711901111
H          -1.97697973546415   -3.22680898140856   -0.30685530464508
H          -2.24131701861060    0.62195228333612   -1.05559036472933
O          -2.09354047677533    1.57178724708244   -1.29582738411116
H          -2.96313479724252    1.94994461169674   -1.43395404172694
O           1.37828779090467   -0.95395820024871    2.48610607354555
H           0.48227201317998   -1.02280724127982    2.07698299397410
O           2.33294022479603   -0.23953944537684   -1.35898082943822
H           1.82869220254387   -1.00812035773759   -1.04832084249605
O          -0.57877231976969    1.77080044401980    0.94032917027896
H           1.22895693029488   -0.93491364299442    3.43294505266460
H          -0.85627618795884    0.88502248335335    1.25087930298724
H          -1.07343020810963    1.90824946100058    0.11092997467562
O           0.02960339878984    0.30238098948665   -2.62649912909624
H          -0.63727597173384    0.96772198432626   -2.41660890000209
H           1.73875314278868    0.14172981616414   -2.03594593264809
H          -0.15416375009599   -0.43735455824861   -2.02171239128865
N           1.96175086254436    1.09532174411961    0.86000460887588
H           1.91497140593950    0.32882729514432    1.57290387344643
H           0.98082229074315    1.50546877006876    0.82016432248121
H           2.65234193072796    1.79460063017768    1.10703811273138
H           2.18590438103984    0.62854342129590   -0.07981121161463
