    26
        -50.46846916  Gyration_radius:  2.43387019307 Dipole_moment: 3.925
 S          -0.96699445823703    1.13386765733045    1.07831618468663
O           0.39625551721755    0.66401689312430    1.06304462659515
O          -1.92100067658852    0.03284058770182    0.95013924225623
O          -1.23725088269451    2.19813341867841    0.13158810102640
O          -1.21416444335699    1.76292538536784    2.51328376581031
H          -1.99416617016295    2.28505570094178    2.35918753448291
H          -0.75481196177427    2.02428552286379   -1.40676524974667
O           2.78551921953409   -0.62714851114241    0.38774937187051
H           2.33578958167341   -0.25788941232569    1.15797543516941
O          -0.85583224065773   -2.17547093429427    1.87193403250538
H          -1.22323607296047   -1.29378023016586    1.62194894597873
O          -0.47341867672219    1.76382537802561   -2.31963214065794
H          -1.00224911831962    2.28910063303182   -2.92200023889594
O          -1.09818001397926   -0.73812976826196   -1.47507709673024
H          -1.61531067367267   -2.75235351653465    1.97307195566982
H          -0.84003755151727    0.08365639024374   -1.93366978100056
H          -1.53695788426269   -0.45470555210120   -0.64894185916535
O           1.97356800140422    1.55052810496385   -0.94672612563596
H           1.39069786652184    1.65945070239597   -1.70747815630478
H           1.37203057941135    1.46410796495563   -0.18550210925314
H           2.75873897731592    0.10934297024772   -0.25848643258454
N           0.75805602633000   -2.16939027348966   -0.27474241402068
H           0.23510731606391   -2.31269814916329    0.62213535525431
H           0.09826110242414   -1.60350635088558   -0.88654070856135
H           1.62570066560664   -1.58389506075630   -0.05666268641350
H           1.00388595143099   -3.05216955078774   -0.70814957229174
