    26
        -50.45048643  Gyration_radius:  2.70097583502 Dipole_moment: 6.733
 S          -2.15981975944868    1.60855810281940   -1.32347464916643
O          -3.44012888130062    2.13813842889849   -1.66028798885869
O          -1.68927460810563    0.50357198704368   -2.16335271759800
O          -2.37862126474772    0.90128342308986    0.13589149673967
O          -1.09901605128847    2.57673699516085   -1.10005798776417
H           0.20820646915481    2.23543960983439   -0.35286024700204
H          -3.25801929269295    1.21358416158816    0.32197853004359
O           0.14944735046499   -2.48461981562190   -0.04318536913088
H          -0.45080499693544   -3.13691642108011   -0.40559593249098
O           1.10129736547586    1.94640724404227    0.00415818136829
H           1.68573960440242    2.69458313724976   -0.12519519685460
O           1.15599578522297    0.29266802997599    2.22046006054601
H           1.10501489608620    1.02797563413169    1.59045796700804
O           2.62158115760917   -1.66466638953449    0.88842886330885
H           3.08128596004778   -2.24984611827039    1.49196450165587
H           1.83174105242187   -2.14060801885617    0.58660925037789
H           1.80497524556624   -0.32325857620241    1.83939009086513
O          -1.08431547190050   -1.03528637457125    1.67418646381027
H          -0.37335869002731   -1.98617396535997    0.66856833207906
H          -0.32392697455145   -0.53068417267033    2.05197529502996
H          -1.60688081742982   -0.38386783622273    1.18333672269632
N           0.64959602297370   -0.24998472062303   -1.50098644711419
H           1.25590074931094   -0.38350546799468   -2.30290654538886
H          -0.34606722738234    0.07613286239900   -1.82411069734311
H           0.53531797088921   -1.14475821766386   -0.97392654083304
H           1.02413439618190    0.49909647844571   -0.88146543598280
