    26
        -50.45048647  Gyration_radius:  2.70097144253 Dipole_moment: 6.734
 S           0.27902144582142    1.36708740281345   -2.65638733882215
O           0.73979347351117    1.70953206251170   -3.96158610861001
O           0.84226070532465    2.15632857751491   -1.55741839768766
O           0.88142075478917   -0.13047411877516   -2.38765544863675
O          -1.15762745709892    1.21226543141404   -2.49877096115377
H          -1.79913808083561    0.47147637356932   -1.30550508426457
H           1.21576963754868   -0.31481570717092   -3.25929861416086
O          -2.18752664258007    0.11565914792592   -0.45050376570272
H          -3.12770699015149    0.29366193214640   -0.49993688972482
O          -1.09183453026176   -2.18232127226361    0.63073229572509
H          -1.57936183022292   -1.51621258673727    0.12203199475715
O           1.77053541824246   -0.08287874064388    1.74790933155485
H           2.67386793419455    0.23478748960045    1.73277669728321
O          -0.51917555667916   -0.92790975180722    3.04990675731762
H           0.37335204464876   -0.66498134562059    2.77470667937823
H          -1.03704761607106   -1.82271479174773    1.53262909628590
H          -0.41247099821427   -1.55257108309212    3.76858583737182
O           1.40731418472196   -1.74355157045713   -0.17100086843937
H           0.50892535114510   -2.08172824227201    0.06150142409538
H           1.28644878117522   -1.22891623914628   -0.98272840799247
H           1.70425997316758   -0.77662101152201    1.01118548841370
N          -0.16393917962933    1.49726290507213    0.68546775473351
H          -0.42193967226552    2.30179801421706    1.24641807022211
H           0.55700966593294    0.92267983711274    1.17699484551380
H          -1.00451108601537    0.92397159211120    0.46190800525900
H           0.26230024985662    1.81918570520433   -0.27196240272524
