    26
        -50.46200176  Gyration_radius:  2.46510292426 Dipole_moment: 7.624
 S           0.96841939470904    1.67788341319780    1.11975026015735
O           0.36353263590986    0.59062960908994    1.90422883850955
O           0.18620636215818    1.98290464209449   -0.06274635468775
O           2.35145345243496    1.38398684871221    0.83478283994806
O           0.92435456621000    2.97143930935480    2.03015494069204
H           1.65727508523081    2.86987272012285    2.63102601182873
H           2.38652645985136    0.78136813568861   -1.68355939782627
O          -1.00746961481121   -2.45446593235112   -0.16489363747414
H          -1.46700123047709   -3.27272617742313    0.02403627025831
O           1.51066065438976    0.38983841430168   -1.63668827484371
H           0.96679828850854    1.06371121699136   -1.15661052514547
O          -2.32182157802878    1.12663598896276   -0.81881753641983
H          -1.53486561374277    1.64391424568786   -0.58784816987361
O          -1.04858344371448   -0.72578829511962   -2.42116759135718
H          -2.04342659440267    0.54829094043643   -1.55343772714885
H          -0.15022488873875   -0.37838727482854   -2.42602583995660
H          -1.06603358593768   -1.44436134839524   -1.77308397345841
O          -2.02853407418978   -0.54904139820457    1.19588485222156
H          -1.48424524154908   -1.73114945216582    0.37566698726779
H          -1.27523878581259   -0.10358212099917    1.61937164830528
H          -2.33088406240489    0.08595619414000    0.49621188494425
N           1.30886010586052   -1.32100021178363    0.41452317831111
H           0.49932027892444   -1.95876815411129    0.19945187076062
H           2.13164996468840   -1.82039793558429    0.73392169970370
H           1.52072475988792   -0.73904143597204   -0.44011028335574
H           0.98254671501532   -0.61772194190935    1.14597801883306
