    26
        -50.45154303  Gyration_radius:  2.59951345682 Dipole_moment: 6.015
 S           0.10075622049848   -0.93488987188315    0.11841577178463
O           1.49646520633134   -1.02763302322482   -0.24411835054602
O          -0.76490376508443   -1.00612553249897   -1.07777820820837
O          -0.17959916739434    0.29323810108583    0.86771458047871
O          -0.24297303142090   -2.14001253165839    1.00769354732624
H          -1.23249351377762   -2.11792339666712    1.16679256844517
H           0.17378798814438    1.51337755554685   -0.06379051876735
O          -2.73220602088356   -2.04255881914245    1.66292239383651
H          -2.86426331088453   -2.70718259829706    2.34241331335278
O           0.37744958966739    2.21436187202687   -0.74634068057088
H          -0.28166930062422    2.90163407243742   -0.63480934073056
O           2.55145557608173   -0.42839322806481   -2.67309662312262
H           2.35134129509849   -1.09268679472432   -1.99331400619847
O           0.21631063332467    0.51484631611778   -2.71029014599068
H           1.18752396757914    0.13027315620203   -2.83220673980271
H          -0.29225361990115   -0.22730795490815   -2.04313293384471
H           0.30380389217647    1.30795343962932   -2.10401624962535
O           3.04317448052256    1.20790970663096   -0.62075755774249
H           2.36388670682540    1.89070727463200   -0.59438985307905
H           2.63990043001220    0.42819147519107   -0.20242211743155
H           3.00908511721286    0.27457054867034   -2.16052841722259
N          -2.26259338349152    0.31348097414837    2.80854906056435
H          -2.88754245844503    1.09742043579968    2.67031733226371
H          -2.69700725445279   -1.15858804302374    2.12377480738568
H          -1.46817202981713    0.43288399876948    2.17642287508728
H          -1.90926425730202    0.36245286720497    3.75597550235636
