    26
        -50.45154272  Gyration_radius:  2.59944685902 Dipole_moment: 6.012
 S          -0.03984933401687   -0.79279188172579   -0.51683957074996
O          -0.42079062443541   -0.18902218296343   -1.77313659507775
O          -1.22556233423421   -1.06884399091475    0.32150779545219
O           0.90874094584171    0.04867911181244    0.21847588827246
O           0.63393463546203   -2.14032717781363   -0.81943777433209
H           0.79861649490958   -2.59380224118040    0.05924427082551
H           0.19425693115551    1.41890717490323    0.52158507074162
O           1.30745631357501   -3.28243004478935    1.38904424576767
H           1.86736666632032   -4.02534819834233    1.15364218443091
O          -2.71973413507574    1.17208021896792   -2.24736916157099
H          -2.15834561495783    0.39774244519602   -2.41797957373247
O          -0.36107525599701    2.22883293352181    0.70748788894237
H          -0.13037425865827    2.51934287171201    1.59159172674537
O          -0.42549984366959    2.53368589346288   -2.12746169687592
H          -0.27967267283641    2.82214073016240   -1.21978453805554
H          -0.14086163100375    1.60423904048929   -2.15027678654136
H          -2.10048827825732    1.92279111012167   -2.38574712456689
O          -2.58409229397795    0.95421096722368    0.25774258133379
H          -1.85233359328759    1.60117884724669    0.48247999592325
H          -2.77481613859726    1.07226983537200   -0.77006614035282
H          -2.04952368598130   -0.02669219848303    0.32638536635824
N           2.82796262209661   -1.16694465057907    1.93388917695487
H           2.22345102082776   -0.60845965545144    1.32754878933554
H           2.82215328066149   -0.74110224274633    2.85196947115342
H           1.90906655934505   -2.55739156253502    1.71664779741773
H           3.77001421479659   -1.10294514267536    1.56885671219470
