    26
        -50.47250312  Gyration_radius:  2.4873581311 Dipole_moment: 2.883
 S           1.31157756224330   -0.33295278772129    1.82041920606815
O           2.37646149541242    0.13004787179042    0.93893397634652
O           0.38368033542368   -1.21200612480077    1.13493601579325
O           0.66372326350846    0.76389535200780    2.51375701042358
O           2.00693218616211   -1.21268395446038    2.93946597734278
H           2.47814013504590   -0.54662778161327    3.42809551446038
H          -0.26984902843219    1.63233042035495    1.55793647557278
O          -0.89564968191516    2.12316464796147    0.96324172955063
H          -0.98514168368335    2.99953300644971    1.34057834525451
O           0.19813681866244   -2.17074020179516   -1.38200940463984
H           0.25372947757852   -2.09487966845187   -0.41147424660493
O          -0.49029546638723    1.58363172379359   -1.68551245571373
H          -0.63520757811847    1.87927184625557   -0.76683250332314
O          -2.14093261675812   -0.36614043395902    0.91595034216777
H          -1.27982970026949   -0.77605099033841    1.13431443371904
H          -1.99424252521460    0.58304692778509    1.04072557196932
H          -0.67221851985142   -1.79640912828762   -1.61109011491122
O          -2.08819530725327   -0.65959683772607   -1.67143881815173
H          -2.18553332937961   -0.58564538190581   -0.67762667884541
H          -2.95178973716799   -0.89385309587489   -2.01170296445035
H          -1.14460566803439    0.87720024769071   -1.83394745390395
N           1.63551812279237    0.02233523414015   -1.55812777270444
H           0.87048700743676    0.74961157211122   -1.67821938529523
H           1.16714798000445   -0.93057137353042   -1.63622526633485
H           2.37861367913954    0.14149703627135   -2.23671130294241
H           2.00934276908578    0.09259187387319   -0.56743620084736
