    26
        -50.44704231  Gyration_radius:  2.69294396512 Dipole_moment: 6.628
 S           0.12857500743602    2.12854536835681    1.97544161951702
O           1.31394423824520    1.95114001164142    1.13020650917183
O          -0.76395672269703    0.98035109235976    1.85022372563411
O          -0.49955595447286    3.40707194101880    1.80251860159657
O           0.65822376099055    2.08857239016616    3.47750858156815
H           0.72824508985422    3.01199785671571    3.69950887056670
H          -1.34044712866976    3.03876981457077   -0.07248905108178
O           1.46560696960067   -0.03269066752285   -0.32906495817265
H           1.49269224568986    0.82688422898532    0.29089214352892
O          -1.36624005690176   -1.87327224287808   -1.41436203751955
H          -2.03235331383494   -2.39476078599281   -1.86244814449439
O          -1.60338032092731    2.16343623349809   -0.37898618796333
H          -1.54337052195056    1.62427228633826    0.42886535325470
O          -0.28748463244416    0.56025871359541   -2.01452108300238
H           0.80820681150824    0.24690840382608   -1.11630585692395
H          -0.84509411680459   -0.23739970763467   -1.94320103031347
H          -0.78579945512250    1.26931637771926   -1.54031187815870
O          -0.13186854008724   -1.42033316246983    1.05908465625151
H          -0.42419003767499   -0.60808157649407    1.53781959898444
H          -0.83530326383618   -1.61549854743284    0.42031402896720
H           0.91187113445082   -0.70412602336665    0.23691324732453
N           1.10242214830447   -2.94494550016177   -1.47316458156113
H          -0.49431173860148   -2.33636997336590   -1.52997628043818
H           1.74911791441058   -2.21870774255050   -1.75807707938017
H           1.26363432477045   -3.12514243265269   -0.48874835903180
H           1.33081617875856   -3.78619633627821   -1.98764041830176
