    26
        -50.44704178  Gyration_radius:  2.69265030367 Dipole_moment: 6.633
 S          -0.61739619240116    2.58759592355187    1.17029388459619
O           0.66007440579892    2.48515796111554    0.45671619680035
O          -1.17540616150114    1.26065765032824    1.41109675981266
O          -1.52162870500301    3.52739723744733    0.57179203002296
O          -0.26182418612943    3.16254873038460    2.61290765070926
H          -0.43192135657860    4.09438422839191    2.51480630912050
H          -2.04467728445928    2.38096536946293   -1.08784467963913
O           1.45275156238751    0.26499196452018   -0.27117215830555
H           1.19931206227937    1.24837362413996    0.03392934581262
O          -0.69788940468155   -2.51749162522036   -0.74083350535489
H          -1.16131933889617   -3.31314466206549   -1.00277520106510
O          -2.04869346419075    1.41695602497444   -1.09650451699342
H          -1.94148172352011    1.19191233561540   -0.15594215531942
O          -0.20676267753224   -0.19526625331523   -2.08804896495988
H           0.83202214185642    0.09665222708182   -1.11736743315418
H          -0.55144878484498   -1.05044229342170   -1.76860236641035
H          -0.91428091905834    0.46303491765117   -1.88296234322247
O           0.11851275545176   -1.00068401238430    1.46705272048548
H          -0.44166913155000   -1.56884776905592    0.91528430899671
H           1.02913060662455   -0.32083058301571    0.47411724197890
H          -0.41751704456297   -0.19160889014574    1.64667136687713
N           1.95469603703632   -2.83873446258893   -0.41473364453544
H           2.43969229564057   -3.70088870290616   -0.62919462494882
H           0.26993826694502   -2.73769757608136   -0.68688984541412
H           2.05777351486929   -2.65843672869490    0.57742409644718
H           2.42001271599534   -2.08655463573476   -0.90922049233882
