    26
        -50.46942765  Gyration_radius:  2.44011739301 Dipole_moment: 3.755
 S           1.16699010395080    1.24823687459461    0.46950513768846
O           2.49864889978934    1.03251166169225    0.97332598872050
O           0.15073960574106    0.62294778759705    1.34994000929267
O           0.99740068245600    0.73796222844675   -0.89046018774456
O           0.87836034303454    2.76844633350101    0.46441763169041
H          -0.05520162076743    2.88831498846927    0.14719016044707
H           2.48599992707450   -0.87282786610690   -1.14464152253441
O          -1.42490610344802   -2.46366569023935   -0.16232575638595
H          -2.08990335836948   -1.91939173235481    0.27538451408610
O           2.87528807231855   -1.20162432943498   -0.32676736971485
H           2.99171044874058   -0.38008270913644    0.20525729355795
O          -1.64847448389548    3.00466451209056   -0.18895839784723
H          -2.05580616173849    3.55229165019487    0.48491897862864
O          -0.90924822178325   -0.56346621696070   -2.02788389878816
H          -0.94026676614723   -0.29207566615891   -2.94575061793170
H          -1.24119616634972   -2.00227505174648   -1.00037612009680
H          -0.15190211509173   -0.06393357708148   -1.61933696710458
O          -2.21407433136255    0.43074136961287    0.19229629278493
H          -1.95243749432394    0.12068357314788   -0.69069889346143
H          -1.38092949047152    0.46014876757208    0.71351289121365
H          -2.01673578929281    2.09467510214327   -0.07044482942180
N           0.81080190703935   -1.87178040586966    1.17291203565335
H          -0.01312391439785   -2.28142552726003    0.65892152220157
H           1.66594731392089   -1.79491657373725    0.54540506019842
H           0.54864461631140   -0.86059580828871    1.39839348907734
H           1.02367410695024   -2.39356368459842    2.01626355597953
