    26
        -50.45316408  Gyration_radius:  2.76319406989 Dipole_moment: 6.488
 S           2.74414326063586    0.51501522564294    1.18042908643127
O           1.76895179448823    0.32391399023329    2.25542300897569
O           4.07987547488008    0.13180189205627    1.49815251428674
O           2.79339177633456    2.12352096008164    0.95727159751311
O           2.21055479050419    0.01495153097734   -0.08543226893417
H           1.26920995700867    1.23354355913731   -0.62882561302954
H           3.58483829488651    2.34061428226170    1.43842240267793
O           0.57219299229660    1.92300185682558   -0.76705907430204
H           1.00182294733227    2.74800473074606   -0.53388385127185
O           0.21743436812660   -1.64391835615773   -0.78141930428697
H           1.11373336214244   -1.29081305748707   -0.63391275648356
O          -2.98351836972767   -0.08966457609420   -0.23152219892702
H          -3.90686171363784   -0.02939920179899   -0.47817840272794
O          -1.06175551224571    0.18420578888684   -2.24384910965581
H          -0.15565179555376   -1.10384925977845   -1.51821274852241
H          -1.82089779512201    0.22594198941663   -1.63729273190736
H          -0.50923693957454    0.94737066627354   -2.02873239910724
O          -2.18233932226866   -2.66757001046914   -0.00599443069173
H          -2.78911016323479   -1.04383027317406   -0.11443567697455
H          -2.49215268506697   -3.37652894633716   -0.57140523300006
H          -1.24515047037839   -2.53064867494686   -0.23179033823350
N          -0.47606197930437    0.21551289842136    1.05405771505841
H           0.39927488199465    0.24782016994287    1.69018205257541
H          -0.35977484508409   -0.63052508710497    0.44323021341230
H          -1.36399101982590    0.19119027871024    1.54541405785285
H          -0.40892131960641    1.04033763373079    0.42936350928882
