    26
        -50.45683598  Gyration_radius:  2.52361772844 Dipole_moment: 8.059
 S           1.06992524762058    1.47420563494056    1.35762040083253
O          -0.20427806217140    1.56872950877520    0.69714845722037
O           2.14809096380016    1.12205431261783    0.42494817312795
O           1.06818608686240    0.58332092101957    2.50805952808306
O           1.42317740958277    2.91393972820795    1.90723132370254
H           2.20036577795485    2.74410224262505    2.42966359346841
H           0.42421442085161   -0.78031171977767    2.06142610635609
O           0.13491498996905   -1.66327562938695    1.69633235394794
H           0.00319603442309   -2.23495539010753    2.45476257303347
O          -0.20757023646942   -0.96585415789345   -2.36455096056090
H          -0.14375826912061   -1.08214471855188   -3.31284805645229
O          -2.86915540076081    1.02333283016081   -0.23663970803500
H          -2.20995566652623    1.36613762139645    0.37936559909251
O          -0.83211710297560    1.46418615254151   -1.90355623875190
H          -0.36496730004558    1.66407863465261   -1.07106692763094
H          -0.46558621054054    0.01199540039698   -2.21979236392510
H          -1.76389508327770    1.40302219929810   -1.59334036878326
O          -1.97595331711307   -1.58385137960061   -0.19478759700274
H          -1.33131874333129   -1.57102728985244    0.52699074510428
H          -2.77923502049737    0.05349021854627   -0.18653268252216
H          -1.46907523253220   -1.52208716220678   -1.01467265385061
N           1.64449216963538   -1.22089335794406   -0.48308258760453
H           0.98700761847324   -1.15434624281727   -1.30598185568194
H           1.91256574663881   -0.21927953017968   -0.16699268392055
H           1.12888252829210   -1.63291884277193    0.32053743881366
H           2.47184666108048   -1.76164998427450   -0.71024161803041
