    26
        -50.46021186  Gyration_radius:  2.67683370076 Dipole_moment: 4.583
 S          -1.84579355724514    0.56335743631253   -1.41041400284397
O          -1.06561519918856   -0.62616018596560   -1.71302007747618
O          -1.32808155999501    1.78606911831367   -1.96051992762529
O          -2.06944232971887    0.67273821587907    0.04079038880669
O          -3.26906749792132    0.29773803181315   -2.05706789119675
H          -3.24166199842430   -0.64701563346053   -2.16347997631107
H          -1.17962742916626    2.03604676980419    0.61044897863846
O          -0.51334263098857    2.63088036475242    1.01356740103687
H          -0.85686708066065    3.51804462845905    0.89786209019493
O           1.39715277413234   -0.37066781201027   -0.88728493002851
H           0.54976889502193   -0.57507161219378   -1.34987132527355
O           0.52114710685926   -2.63777170732753    2.30731140482427
H          -0.09785765593109   -3.35350673174057    2.15574602639844
O           1.18008607008070    2.22174275736478   -1.15307638290420
H           1.54762586143143    0.59038964205248   -1.08198134462569
H           0.35528152987222    2.16704777809173   -1.67425594043833
H           0.87118387599761    2.51316261476238   -0.27994803652935
O           2.31300276600748   -2.66797472217136    0.29796232236044
H           1.23634021126959   -2.75293774686442    1.64410568604880
H           2.04279140777628   -1.92339707103474   -0.26906645962260
H           3.26677740466001   -2.61735917828060    0.37428132596681
N           0.03696380160845   -0.16826340563065    1.36239371727548
H           0.71087186897946   -0.23518961108731    0.53860084678812
H           0.08041027349760   -1.06810673474766    1.89015915496009
H           0.26422595428990    0.63686130613489    1.94159332398896
H          -0.90627289224977    0.00934348878638    0.92516362759012
