    26
        -50.45796988  Gyration_radius:  2.58055010095 Dipole_moment: 5.752
 S           2.11964291461539    1.04693676732216    0.66426716992670
O           2.21337937182710   -0.38613827138866    0.77409455574154
O           0.78776025113452    1.53542885234127    1.02785061267145
O           2.56849685428065    1.59477628832960   -0.60218014142352
O           3.11259674698115    1.65114978096030    1.76003677929668
H           3.28803923135361    2.52541719738888    1.42460716481392
H           1.45825095192724    0.78986439458663   -1.38055130275164
O          -2.78470380693952   -0.26897821824796   -0.19836653711088
H          -3.72377511212109   -0.08537551615414   -0.15505180439371
O           0.81271370374003    0.26467024451550   -1.92145696837434
H           1.30971048751399   -0.02543232894727   -2.69026999727305
O           0.52907539060486   -2.34686420331122    1.37324751980118
H           1.32763783763155   -1.79903817269342    1.23102095549368
O          -0.59433372469269   -1.97869601758404   -1.04464307792410
H          -0.03126054649661   -1.23292977103182   -1.31356941244675
H           0.18542515432870   -2.50563248910184    0.46874622804039
H          -1.45481466986230   -1.59866514624739   -0.83305833434532
O          -1.67082076273306    1.33036175740528   -1.98461541131433
H          -2.40018147895018    0.38275711722306   -0.83710741451856
H          -0.72565472470228    1.09233373258997   -1.89299871970528
H          -1.89048200851725    1.19728389879344   -2.90863488210682
N          -0.91246469018984   -0.23545205620528    1.82849223794184
H          -1.70316211534594   -0.23893453121085    1.16043370420942
H          -0.21686923689581    0.52462069398042    1.52347333473933
H          -1.23019176938158   -0.06149259023937    2.77472277508182
H          -0.37401425905951   -1.17197141309330    1.75151097592333
