    26
        -50.46162543  Gyration_radius:  2.55228463006 Dipole_moment: 4.693
 S          -0.99696117847307    0.09504995096236   -2.02379731295692
O          -0.64063971304298    1.38053723690845   -1.41693199723737
O          -1.97489519572580   -0.60323932264551   -1.22322789030681
O           0.18060027923371   -0.68840601356565   -2.35435544227614
O          -1.70189884851797    0.43413404123019   -3.40509862850926
H          -0.99443724682218    0.71776826218118   -3.97764605721528
H           1.53886991852223    0.11391904808594   -1.59361632084026
O          -0.03263933098280   -1.64133445530169    1.44958896601091
H          -0.29242389900637   -2.26095135664193    2.13299641369136
O           2.02936930196997    0.78616969902015   -1.08687367503592
H           1.44016536081564    1.54846770683897   -1.09695326995986
O           0.70514368612539    2.06119429212733    2.57157173780391
H           0.82945290888578    2.05387812574633    3.52112866006173
O          -0.54985207872753   -2.76988673074667   -0.82603497199159
H          -0.15562950122137   -2.12779911808066    0.58046035570201
H          -1.32610685435333   -2.19299503689350   -0.97046168577679
H           0.08137576456074   -2.41921381809514   -1.47116197437419
O           2.15307111709843    0.15663766169551    1.52335499580049
H           1.55496179616055   -0.60381066430628    1.52793221871041
H           2.27363586004400    0.38387314449611    0.57548018869278
H           1.37929651367818    1.42602535166380    2.19750835985325
N          -1.11612260916606    0.83536755449500    1.08808755417948
H          -2.11142000681733    0.91173145195225    1.26966996465974
H          -0.93606095199613    1.11841988907352    0.07580937951590
H          -0.53409356365424    1.43975785967190    1.72828810211643
H          -0.80276151859594   -0.15529476986110    1.20428234967810
