    26
        -50.46365773  Gyration_radius:  2.4472661916 Dipole_moment: 8.572
 S           1.35244600188378   -2.02153295897205    0.07911983884260
O           1.75080341938998   -3.32979779785476    0.47933305782948
O           0.12958592458386   -1.95794499001714   -0.71253531052037
O           2.51743862500083   -1.48199529104769   -0.89438401926467
O           1.31818219872770   -1.01715912065075    1.14612045855437
H           1.65884412991074    0.32846168416492    0.42607240313295
H           2.87530267910018   -2.31714415939878   -1.17127903317237
O          -0.90375914835603   -0.17741643894087    2.31299893398485
H          -0.04375609344962   -0.59073193718864    2.08367779091336
O          -2.01576534518187    1.26869661264538   -1.20929245974605
H          -2.53071006273550    1.64136168906643   -1.92486482696473
O           1.79380391578246    1.21326351381922   -0.01841067579997
H           2.74132692306273    1.30161272904719   -0.12665182265755
O          -2.23790099702418   -1.16813113286480    0.28481058038223
H          -1.55239797696009   -0.63568828502728    1.71654183815475
H          -2.40346309560505   -0.40273347070370   -0.28281126589003
H          -1.45829132539770   -1.61325939595917   -0.10154597173599
O           0.19991009309979    0.26935594848006   -2.08170470410906
H           0.16993566128162   -0.63852058131327   -1.70160713647402
H          -1.19151953828926    0.86945560197937   -1.62907415362036
H           0.89965944849279    0.71293127813039   -1.57683095397986
N          -0.61627281405364    1.98730810420517    0.98154350117852
H          -0.78361539699587    2.85760367526331    1.47253449621249
H          -0.76837046207222    1.10078499616120    1.64167488808951
H          -1.25915582290653    1.87414381656038    0.16985250815430
H           0.35773907872511    1.92707590041510    0.63671206850481
