    26
        -50.46942767  Gyration_radius:  2.43998068114 Dipole_moment: 3.757
 S           0.47986100501182    1.56296259467216    0.68553480920868
O           1.74576488357284    1.88153711900697    1.29345242530149
O          -0.20063584919271    0.46006472780836    1.40623453627107
O           0.61559822874069    1.19781242734675   -0.72409024875810
O          -0.44470303545712    2.79959798157148    0.78691896024509
H          -1.31966215423333    2.54338061191836    0.39298942818110
H           2.66139488709112    0.42619747944945   -0.97356147653306
O          -0.19326435741997   -2.79805720919614   -0.51179266626970
H          -1.04930764949329   -2.65008705424846   -0.09306610580445
O           3.12132966196802    0.20005541204164   -0.15740725589686
H           2.84454760067442    0.92097079719520    0.45494289183553
O          -2.78462860964348    2.00253765006180   -0.08363005719121
H          -3.42382591069700    2.23833967945487    0.59146415821914
O          -0.47389397851009   -0.65074110018644   -2.14506249962702
H          -0.57436670222077   -0.31250222800641   -3.03535799532123
H          -0.19040273263079   -2.20501749822967   -1.28455446968300
H          -0.03230401785700    0.07327870140976   -1.62463881334813
O          -2.18630337232959   -0.59027100084062    0.01928979919438
H          -2.72342974609390    1.01562086784080   -0.07861445257295
H          -1.77427378849617   -0.64928087495990   -0.85872495141587
H          -1.47559102946600   -0.26827940670738    0.61749298556582
N           1.49190788681382   -1.46787047801836    1.07653524723695
H           2.25563068470169   -0.95606341552924    0.54192689699159
H           0.80333916869134   -0.70265644672925    1.36349704126789
H           0.95566919918485   -2.12690008646480    0.45289335119142
H           1.87154972913205   -1.94462922735278    1.88732847214864
