    26
        -50.45124340  Gyration_radius:  2.85075893401 Dipole_moment: 7.276
 S           2.17122766069003    0.86638469722268    2.00388108462493
O           3.37446123159421    1.27536122509661    2.65352821081255
O           2.08278890209349   -0.54689043039107    1.65306137836468
O           2.23885021527524    1.62525605306755    0.54148792632184
O           0.92849507929075    1.35123646191767    2.58347944312200
H          -0.48011361349211    1.30551594482701    1.95524001001822
H           3.09135990810164    2.03246959493804    0.65344118768703
O          -1.36457504767233    1.20304602600450    1.48956500219116
H          -2.02967863970403    1.41960137114425    2.14367069804805
O           0.12821632687068    0.18740937446121   -2.16254670331376
H           0.98695189532631    0.26787494067956   -2.57987646201338
O          -1.46706627411611   -3.19715950361886   -0.33873321834893
H          -2.29162541434447   -3.53261122609338    0.01477303949177
O          -0.13837798323728    2.32695005919718   -0.70421043134853
H          -0.05079082618139    1.06942935885485   -1.72716245376446
H          -0.77749686753006    2.10480562126844   -0.00660680564320
H           0.72841294157124    2.27415921521338   -0.27047839194711
O          -1.88844778930098   -1.68368737038057   -2.56019495092073
H          -1.81252472171221   -2.02829992303026   -3.45110986338829
H          -1.68387627107716   -2.75101536073919   -1.18224587929512
H          -1.25313841851862   -0.95113832751520   -2.49125370745974
N          -0.10440467127926   -0.93887634909786    0.35947038143817
H          -0.78173951240414   -0.28589096288830    0.78930081720755
H           0.07717861078737   -0.62448607552253   -0.61022318093173
H           0.80950337433424   -0.87199447088105    0.91982000917701
H          -0.49359010541688   -1.89744994381789    0.32392283988908
