    26
        -50.45124328  Gyration_radius:  2.85086734218 Dipole_moment: 7.279
 S           2.17771631755475    1.30148156326576    1.74603243672015
O           1.99482572578436   -0.14303608598347    1.83574775356866
O           2.94174039398222    1.90127377578093    2.79170513466688
O           0.65867328265460    1.89942125426735    1.97894678593138
O           2.50380725112113    1.71519279800909    0.39034607973298
H           1.68434162851034    1.45645144178790   -0.89116322301189
H           0.84335242607017    2.40340443502589    2.76447131208160
O          -2.12763960881631   -0.04272020990819    0.45371134016243
H          -2.42131074640283    0.07852668276198    1.35770774908857
O           1.10925874394244    1.21336982282797   -1.67849293504183
H           1.62508306697470    1.43253751439754   -2.45504327930064
O          -0.14655657693620   -3.34780677860622   -1.12162077335773
H           0.12293371690680   -3.72101354550601   -1.96149247384652
O          -1.00370878701679    2.20642502839064   -0.22019209343759
H          -1.83731203757121    0.85908660604898    0.13440819082890
H          -0.44408852566221    2.29197087641237    0.56826190566413
H          -0.38528221817027    1.99833169882912   -0.94043894788728
O          -2.57718800004243   -2.14067904913392   -1.31356754893210
H          -1.06200443007997   -3.02271736774609   -1.23953013451015
H          -3.39786441548347   -2.57237600558335   -1.07199966757089
H          -2.50892473942508   -1.34493892812703   -0.75934302085993
N           0.45406154855993   -0.89967755739602   -0.07851209057285
H           0.69434457565687   -0.27607841272995   -0.86793445924623
H           0.48242669601597   -1.89114091272083   -0.37492929326550
H           1.12956991907152   -0.67721298069165    0.72637417593512
H          -0.51025521722637   -0.67807568373759    0.22654708650558
