    26
        -50.45124346  Gyration_radius:  2.85061286515 Dipole_moment: 7.275
 S          -1.99908884409242    0.39859472877064    2.30760003565818
O          -1.63398275191250   -0.96544445615147    1.94120801078103
O          -3.15716875694639    0.53645928530011    3.13028312634053
O          -2.45417525379184    1.07593297516868    0.87462597698394
O          -0.83404210733637    1.17654711030043    2.69854665955546
H           0.43935737938473    1.44026630643580    1.86794427138622
H          -3.35268676094984    1.27788335069943    1.11341419694602
O           2.11263507623584   -2.77544288490463   -0.56544917553745
H           3.03537507073915   -2.89459960128010   -0.33826539076026
O          -0.48250468053534    0.08495891076028   -2.11905136054953
H          -1.38779963959107   -0.04946410641577   -2.40277731977414
O           1.24587143526862    1.53217687818558    1.27569965381906
H           1.92913013547645    1.91803640089885    1.82466854614791
O           1.83764082663952   -1.27633587520169   -2.81911244951296
H           1.06464350508578   -0.71046165063663   -2.65391780283968
H           2.09309094299640   -2.31819248571011   -1.43044221095192
H           1.71678017433070   -1.65653498362409   -3.69036898992677
O          -0.51461436801329    2.27178372893117   -0.70737672416824
H          -0.45347214036089    0.99748667330955   -1.71169456824634
H          -1.27234407742504    2.03223226994194   -0.15010181402552
H           0.25311170585315    2.22590858037426   -0.11328838849627
N           0.37233668586076   -0.87766281453312    0.33563269602690
H          -0.01669428395064   -0.64402180056266   -0.59506342631233
H          -0.44030007488186   -1.00803627471907    1.02574335527353
H           0.96637354370035   -1.71993262014977    0.23856029471165
H           0.93252725820061   -0.07213761518315    0.66298280747531
