    26
        -50.47044454  Gyration_radius:  2.46610579983 Dipole_moment: 2.889
 S           0.90069608578962    0.90363491048549   -1.22703045893469
O           2.15476687785919    1.48127461718611   -0.82628650368566
O          -0.26980616535903    1.58959447554904   -0.70762044893682
O           0.81384891632103   -0.53488326822921   -0.97711811105276
O           0.84081223672630    1.03125012315764   -2.81521041520934
H           1.41675193736930    1.76602238233168   -3.00067863314189
H           1.83384619763736   -1.25752370809487    0.21178865770232
O           2.23880211636238   -1.57754059559073    1.04133211470393
H           3.14931505910540   -1.78969311386007    0.83102374764384
O          -0.66052407741465    1.33103477687646    1.94910439626076
H          -0.70691808271189    1.69899820820013    1.04907687267700
O          -3.15594675038482   -1.41615333856658   -0.22713250242370
H          -3.91470566299369   -0.88013408298141    0.00943211080200
O           1.97063998592384    1.06173450531522    1.84945706731135
H           2.14738541067399    0.10671294194202    1.82114539619025
H           2.14980256616908    1.37914783998337    0.94781351525581
H           0.30386088831513    1.35408582092518    2.15383625985342
O          -1.82503199618126   -0.04258513618329   -2.08328794282391
H          -1.13439103075779   -0.47318877008164   -2.59169108712861
H          -1.36426344316410    0.66016104331332   -1.58368908041335
H          -2.75191289471470   -0.97914455402267   -1.01394471501468
N          -0.83552568198787   -1.10783073584611    1.05658257221856
H          -1.79666582115345   -1.35052203906752    0.71439236419861
H          -0.84519054488218   -0.15365883865448    1.56058942597451
H          -0.43205118310139   -1.83233471839056    1.64220797087721
H          -0.22759491342701   -0.96845873570622    0.21590740712658
