    26
        -50.43891903  Gyration_radius:  2.47135399545 Dipole_moment: 7.257
 S           0.84844971577723    1.70577304442669    1.39273972675158
O           1.47977098673754    1.94785980469267    0.10231153415763
O           0.64217928872722    2.85882976531351    2.21015048103225
O           1.91065588312348    0.79524140058268    2.22001610727888
O          -0.30833931924661    0.83129256372636    1.23511750649294
H          -0.35695641648559   -0.62999389757186    1.55101409183702
H           2.21348386779717    1.43431459906174    2.85639309904830
O          -0.53707950220625   -1.62438826048152    1.64975796351343
H          -1.09043188047402   -1.70558773239377    2.42870569268013
O           0.19207647804404   -1.24524711880291   -2.08705441695389
H           0.49570740672385   -1.97702189755578   -2.62505124194703
O          -2.72794151551985    0.69089559125838   -0.62297538697761
H          -3.33004443235083    0.89964798969870   -1.34019728667075
O          -0.49389352696695    1.55482682169103   -1.62970589714697
H           0.20295509512378    1.81590963305179   -0.99157664043615
H          -0.16764860160158    0.74773554123002   -2.04606195120428
H          -1.86536525222454    1.15216004045698   -0.84022768996286
O          -1.77830531945112   -1.62360015507076   -0.54392011442491
H          -1.30582665024676   -1.69990585136768    0.38295212595348
H          -2.24903929311626   -0.67976913795947   -0.53738507134437
H          -1.00342688557147   -1.51500884702856   -1.22034215148510
N           1.91817529011448   -0.76407033967112   -0.25742337950268
H           0.92944049509540   -1.06495977408043   -1.37027088946251
H           1.82995400578791    0.24916300402829   -0.12364082391563
H           1.65352332188295   -1.19047506608920    0.62286910095334
H           2.89792677054332   -0.96362172113889   -0.41619449825718
