    26
        -50.45339360  Gyration_radius:  2.62145329189 Dipole_moment: 6.428
 S           0.81360051566959    1.66486603223182    1.50428578496973
O           0.13496750059901    1.70051996075532    0.22811419547009
O           1.95418181427694    0.74510236813323    1.49510068497989
O          -0.07602442518262    1.38744872340377    2.61794207741360
O           1.40613941384680    3.11173570547954    1.74830410432085
H           1.66375686366275    3.06442433742488    2.66335755499545
H          -0.99483406373131    0.01159481143334    2.53328270931572
O          -1.36209438651525   -0.85706942865318    2.23764935747475
H          -1.89608392345145   -0.65129608345867    1.45897211252231
O          -1.04569991013147    1.59512694103352   -2.46996619292442
H          -0.59586223870474    2.04053130018242   -1.74212355683051
O          -0.14940557560717   -1.95912903931277   -1.24310014866532
H          -0.70466341635031   -2.71713564643784   -1.43201152194342
O           0.77614953521907   -0.33893059899970   -3.33700921834108
H          -0.35746007981395    1.05417353049081   -2.89242989629706
H           0.59843771879342   -0.95050266180452   -2.60414621878871
H           0.61513027652785   -0.81736804386193   -4.15139092769348
O          -1.68695528211075   -0.03366969199276   -0.45325745339535
H          -1.02995474645771    0.59508995998077   -0.06529583912065
H          -1.89507310676068    0.42854615333424   -1.29030347719083
H          -0.77649858008588   -1.21686100922178   -0.96815897555079
N           0.93786581431890   -1.60095444374405    1.23002152255258
H           1.45055255570581   -0.65392564523807    1.30173313156541
H          -0.00648549755253   -1.44344948505992    1.71276154499186
H           0.74932148413787   -1.82824036764756    0.23455458722067
H           1.47699172969864   -2.33062765847492    1.68311405895017
