    26
        -50.45352385  Gyration_radius:  2.57390941346 Dipole_moment: 4.218
 S          -0.40356169121771   -0.67514202834140    1.17125845943322
O           0.02636300490521   -2.11205597765874    0.98865031746955
O          -1.18889024672247   -0.22521665960123    0.04804123442646
O           0.74753959457774    0.18053800913928    1.40493330474591
O          -1.25573932026072   -0.72430330261605    2.43640623563008
H          -1.15093293371322    0.19871722473260    2.87972066851252
H           1.74700291926510    0.34476859089211    0.12202047553334
O          -0.79082704198958    1.63810656058463    3.16266110413927
H           0.11289850068846    1.56657327433038    2.83193599884041
O           0.24358082606527   -2.11773892223719   -3.10452084108120
H           0.64948143944995   -2.15470584895218   -3.97172548373997
O           2.29980859021877    0.30797856589754   -0.69432265433982
H           3.16915283696263    0.62984213370901   -0.44912014516189
O           1.64510980275971   -2.31946704467903   -0.87941474914712
H           0.72551532067215   -2.25965606853663    0.18812540592484
H           1.10796625120372   -2.40611006886792   -1.70888602140785
H           2.03432912093856   -1.42196703059238   -0.90905016082680
O          -0.02102938286087    0.40921796806225   -2.30864254038782
H          -0.57993436649660    0.23227303375529   -1.53106007627556
H           0.86007565618651    0.58425083104959   -1.95239676443330
H           0.02493415165163   -1.17038150621888   -2.93363945124912
N          -2.05762201677417    2.36865986580902    0.94575865887638
H          -1.30973337592717    2.07617469166795    2.42922317270523
H          -1.70545010132850    3.10001625674381    0.34054935053546
H          -1.86709268237142    1.47472123986995    0.49355153426942
H          -3.06294487587650    2.47490623205663    0.99994298702010
