    26
        -50.45640438  Gyration_radius:  2.43298504099 Dipole_moment: 7.922
 S          -0.20785335269163    2.33040920764934    0.45151405349906
O          -0.77690342130499    1.49438772490497   -0.64747523013747
O           0.04568526480319    3.66940617630287    0.04318351226215
O           1.16492144779373    1.61787245010818    0.80922219956698
O          -1.00187298814258    2.13982293923780    1.65392147179871
H          -0.52009597641931    0.75879918357516    2.18531028632630
H           1.62308244287651    1.34119121795208   -0.00374315931580
O          -0.69378469491527   -2.18680160369152   -1.24594806899286
H          -0.82634678449173   -2.91814161189430   -1.84935866487167
O          -0.37556803923420   -0.20348828202744    2.43231045137141
H          -0.15746014040987   -0.20499153565791    3.36495860497448
O           2.49911089150337    0.16335819040205   -1.00330170511717
H           3.44100750659160    0.22711041844565   -0.84085424553555
O           0.21537824620734   -0.12172557198106   -2.51895760668484
H          -0.20724156559512    0.59349994125817   -2.00154112636953
H           1.15517420906388   -0.04569957992954   -2.29850736296346
H          -0.33572840506605   -1.42474140526072   -1.80089445851320
O           1.31262011855396   -1.54087714807689    0.62940904405386
H           2.15237363038419   -0.53359423505962   -0.38529035792802
H           0.84799769039510   -1.00726074892384    1.29711494799709
H           0.62790430116793   -1.93347113770957    0.06759997719820
N          -2.03162922196699   -0.46719404062080    0.34071985936559
H          -3.03808681498979   -0.35662790721049    0.37447862411892
H          -1.54962031738880    0.43747211155404   -0.09041374081330
H          -1.62652981195915   -0.56126439318191    1.28845255917682
H          -1.73653420476711   -1.26745036016700   -0.25190988446454
