    26
        -50.45452915  Gyration_radius:  2.51050736887 Dipole_moment: 5.105
 S          -0.63235043193835    0.02355126007468   -1.55003027563713
O           0.61504398554672    0.71100557685024   -0.95755097595931
O          -1.76663778610990    0.88648223857582   -1.49367674027251
O          -0.82108121581736   -1.23930783488517   -0.85988815036696
O          -0.21890217570930   -0.21708830128609   -2.99376484865098
H           0.76172294301478   -0.52722950133360   -2.97776988873529
H          -1.48111117960482   -1.10106419362430    0.64308643735833
O          -1.69961256946935   -0.91084159577229    1.58440915756393
H          -2.17905856461100   -1.67238801049719    1.91457017720943
O           2.21426294867255   -0.84636292976669   -2.73033290084897
H           2.59860124908803    0.01086553012191   -2.52906876433783
O          -0.17510171538226    2.72849651873873    2.12558319747775
H          -0.40906231240697    3.07096550884812    2.98924424244825
O          -2.38017308340648    1.75376464924540    1.01217149492779
H          -2.28553488614852    1.63735586837091    0.05184190828875
H          -2.36564257890218    0.85545447314551    1.37324041319288
H          -1.02699081536332    2.51928502951236    1.67028447272705
O           0.76015441057553    0.33822374249077    1.53283002489216
H           0.57672427528323    1.26166338601683    1.83759387067124
H          -0.04705480528950   -0.16224295232075    1.74511559268161
H           0.70475021339360    0.56522513097113    0.06347665339205
N           1.88431450304850   -1.99809224076423   -0.37713233892204
H           2.19256416938651   -1.34920747403925   -1.85906192152087
H           0.86890446440838   -1.98421191994330   -0.45357142563587
H           2.17706470590717   -2.94431391790279   -0.17083256703466
H           2.13420628187709   -1.40998804076078    0.40923317509803
