    26
        -50.45484849  Gyration_radius:  2.4870430061 Dipole_moment: 8.983
 S           1.46050930487600    1.56035908325444    0.56143830760579
O           1.30335174023754    1.55044922907583   -0.91682477042260
O           2.72946016992386    1.06585898084346    0.98846379331103
O           0.36040342212749    0.49168967261091    1.04802872733522
O           0.99877787293439    2.81164124706586    1.11726702256330
H          -0.59444920333865    2.76907374773191    1.32363456703510
H           0.83077063310184   -0.36593648830791    1.08670917529730
O           1.42867304576992   -1.95661900984564    1.13240232708766
H           1.82376116697418   -2.05540698781542    1.99963183454022
O          -1.55449782689670    2.50279285328232    1.33695545926255
H          -1.59010041125680    1.78401201059954    1.97284227801256
O          -1.20078117404993   -1.22784938042870   -1.42388083423351
H          -1.45780555345025   -1.61658387984368   -2.26163932940966
O          -1.05805048334994   -2.88538947387450    0.77428702403483
H          -1.16162640188133   -3.75567160681090    0.38525455869144
H           0.54691273470622   -2.39240732457280    1.14362538154771
H          -1.24670642177028   -2.23730352384068    0.06841439237828
O           1.37154399640024   -1.00205252730699   -1.50365861645926
H          -0.19154986032379   -1.16351082395274   -1.45470632160989
H           1.50205106713435   -0.03400777496100   -1.37405935007451
H           1.75057643350869   -1.41943105116246   -0.71979895709746
N          -1.24346251690626    1.51712215837782   -1.07907700675844
H          -1.68059650905455    2.04821374160178   -1.82424283570290
H          -0.16127348628434    1.61609037587929   -1.10329369315744
H          -1.52165542067890    1.89095790798414   -0.11897004502301
H          -1.44423631845473    0.50390887442357   -1.15880306875279
