    26
        -50.45484848  Gyration_radius:  2.48780142191 Dipole_moment: 8.988
 S          -1.21713071358752   -0.52814323354182    1.76879683629630
O          -0.50070247464417   -0.55231060496612    3.00302280568117
O          -0.99454700592705   -1.74687050749492    0.94690758720270
O          -0.55789463850424    0.63527958741775    0.87407751009774
O          -2.62014777578430   -0.18461765923706    1.80629278544245
H          -3.01427846023773    0.66681332651408    0.50171341605470
H           0.37145720901274    0.69987645744722    1.17466973308004
O           1.11107076374007   -0.41950386165972   -1.88971437114908
H           1.55754530063425   -0.94156175257081   -2.55838875106739
O           2.03005213142899    0.91242616322238    1.48074994244405
H           2.07767854809046    1.53159819912167    2.21033802150594
O          -3.00373633415842    1.14731163451957   -0.37113174772858
H          -2.43708416371506    1.90672956574148   -0.21456762003840
O           1.55486534722330   -1.61270258010384    0.35827150111931
H           1.30816081509729   -0.88100763765164   -1.01119156788027
H           1.91459633602489   -0.97625090653722    0.98898975918845
H           0.64302243405619   -1.80940510075439    0.67566749297752
O           2.35688397673868    1.87189672203991   -0.99844510523867
H           3.22710748552360    1.80399782894203   -1.39547982582414
H           1.81153460799319    1.16440011277341   -1.39328929048720
H           2.22308773848692    1.40076764519851    0.64893832818125
N          -1.57466374237897   -0.82379178384890   -1.36029610229002
H          -1.39301273339474   -1.31962147083067   -0.41003743426891
H          -0.64609600725973   -0.54218485366646   -1.72301465556805
H          -2.06404979566273   -1.43184025065207   -2.00769308351288
H          -2.16371883879921    0.02871495057984   -1.10518615422006
