    26
        -50.45484849  Gyration_radius:  2.48724714291 Dipole_moment: 8.984
 S          -2.20639918474720   -0.12311368408084    0.00344401804867
O          -1.72039979216710   -0.12866285458509   -1.40149285054061
O          -2.87276845609303    1.08888143324980    0.35580299174275
O          -0.84303287580379   -0.16601378446956    0.85663941473574
O          -2.85709147685748   -1.37243884398121    0.32533761307334
H          -1.76336732610360   -2.47193733913200    0.74648766252463
H          -0.60956171545096    0.77041784300259    1.02060137687498
O           0.02266695845903    2.31650791487967    1.33601138319099
H          -0.40364918959415    2.60679401237589    2.14345819059873
O          -0.91582555367569   -2.95625237483168    0.94625192896335
H          -0.56956229857969   -2.51292677480825    1.72454270525041
O           2.01735207637659    0.12506431287777   -0.94477335351357
H           2.66546049613573    0.27572755016890   -1.63490323280471
O           0.08286824368564    1.77170176222969   -1.41399595059240
H           1.27441955631414    0.78834599394812   -1.12309253743101
H          -0.68749332056939    1.16643451252941   -1.51990075834755
H          -0.09979261479110    2.28218594953192   -0.61499958280731
O           2.47683516874349    1.26034327478571    1.52486971810708
H           0.92955105790153    2.00820072188658    1.55984762682492
H           2.35241226791404    0.71357589357996    0.72525446802165
H           3.22668416017825    1.83306044490301    1.35392845995599
N           0.12772908194486   -1.87834568355732   -1.21125639770301
H           0.26551413494710   -2.51263785075823   -1.99041090365587
H          -0.69110915029929   -1.18901841503888   -1.40082892660712
H          -0.16652993189457   -2.40224825689992   -0.32933360837124
H           0.96508967402664   -1.29364575780340   -1.03748945553947
