    26
        -50.45484846  Gyration_radius:  2.48752543215 Dipole_moment: 8.983
 S           0.98526679888432    1.97069123277610    0.18028403451525
O           0.31966703791071    3.03712577947933   -0.49562553792579
O           1.77865413812381    1.11044436119577   -0.73665599213912
O          -0.16021122796115    0.97255693730207    0.70984814277209
O           1.74410732999947    2.28996498616492    1.36769086140985
H           1.62100492818466    1.09817527792738    2.43867554273444
H          -0.90917391070503    1.08356460981083    0.08933873919802
O           1.40447914805658    0.24512471559730    2.90587152916816
H           0.45671817183985    0.29193034779729    3.05368256333987
O          -0.24233352547422   -2.07717962464341   -0.77859833876774
H          -0.10964227002721   -2.82664876313095   -1.36142224663152
O          -2.27956096853809    1.05497434607079   -0.91607798436385
H          -2.83978054944678    1.76687509540787   -0.60413811957447
O          -0.04926003472097    0.02494960147295   -2.26739110680424
H          -0.18709601728721   -1.26017677667145   -1.37304001064806
H          -0.83067830682876    0.57716698337728   -2.13793786688845
H           0.69193055429237    0.51625497163577   -1.84284990062923
O          -2.82875719044858   -1.42946458028560   -0.08028934582255
H          -1.89882832143995   -1.71420820019537   -0.17004628581925
H          -2.63791196737157    0.20643004546229   -0.57079431852680
H          -3.34703764591416   -1.99211145078583   -0.65850373980129
N           1.87773841905818   -1.02631353110022    0.65515102002789
H           2.73447216146531   -1.56850504428938    0.63482776562612
H           1.07233160915548   -1.56431342401802    0.28754117681826
H           1.67681925907081   -0.65148460828429    1.63385587505843
H           1.95708239011528   -0.13582328806957    0.03660353367069
