    26
        -50.45454420  Gyration_radius:  2.42329128928 Dipole_moment: 8.702
 S           0.85404184688881    2.11177113416766   -0.69025995259124
O           2.16096842380352    2.67669712660452   -0.57284467626769
O           0.42761808202340    1.48280369905656    0.59559889470941
O           0.95447939294781    0.88463792630567   -1.71068460544586
O          -0.20884224352902    2.92010619305115   -1.22466399757800
H          -1.20345522935044    1.66268014615277   -1.36768864281032
H           1.64264893708206    0.27731391695465   -1.41783805015060
O          -1.81504616973038    0.88995132431560   -1.47614566153195
H          -2.14815666369162    0.95691722193895   -2.37262206929858
O           1.96134585847382   -1.54986478864318   -0.90094542102131
H           2.36392230276402   -2.10179857623391   -1.57189832065435
O          -1.16644429295281   -1.58156234386336    1.76064719330686
H          -1.72059496339562   -2.00716963855770    2.41509193878396
O          -2.03952978286188    0.78935151357923    1.24607806875895
H          -2.39982211337630    0.79388491503988    0.34703599354496
H          -1.56675397407410   -0.66654459224271    1.60283726901350
H          -1.16965583233433    1.22855978206193    1.12996075538724
O          -0.64686086967247   -1.57898664816020   -1.02494918427171
H          -0.94874283457468   -1.73488064890143   -0.11900546181755
H          -0.97268200788780   -0.68784622169053   -1.26401584026338
H           0.97175375945861   -1.61310931793569   -1.03949947120048
N           1.36028697401088   -0.65352633246526    1.55873012741655
H           1.83039323450378   -1.14088605197316    0.77934476791694
H           0.47490449475859   -1.14904269731112    1.79729251609543
H           1.96716287072758   -0.54049057980825    2.36188291294745
H           1.03706079998526    0.33103352855952    1.15856092702109
