    26
        -50.46365781  Gyration_radius:  2.44720270418 Dipole_moment: 8.571
 S          -0.44430213620775    2.39199791767926    0.04667671925798
O          -0.35855451216051    3.75965447207790   -0.34373201496192
O          -1.11520524292884    1.51413589460860   -0.90498561418727
O          -1.36367791909383    2.36549658071882    1.36977568218727
O           0.80967251699455    1.78390997144620    0.50049660309174
H           0.36333213528732    0.71255915075609    1.54883773123723
H          -1.83862908622500    3.17693846471538    1.23457960102579
O           0.10490530668710   -0.03318055523076    2.16168273651756
H          -0.05440295057863    0.37973126037323    3.01113215122461
O           2.28577231035444    0.15911610670300   -0.97790165466665
H           1.91353671808842    0.90806615658268   -0.46465767964972
O          -0.76655489616983   -2.37614584715481   -0.95024962591400
H          -1.34821861217514   -3.11069821905497   -1.14570366222852
O           0.19638621195817   -0.18211018528723   -2.52477591735650
H          -0.33048465767309    0.51512813298259   -2.08696224840368
H           1.65519848592417    0.05773185991639   -1.73851985977509
H          -0.18484629171654   -1.01834743877552   -2.22352185221195
O          -1.98901915028116   -0.56274941714252    0.42336674665560
H          -1.45393806161561   -0.44146891733248    1.22357077350734
H          -1.80697265965186    0.24453257669940   -0.11020154706540
H          -1.32000485936600   -1.69984093969571   -0.44907254874466
N           1.41831499689667   -1.74082529815963    0.49841660599313
H           0.65004034195208   -2.16736994401447   -0.06080731225864
H           1.88800516210183   -0.95641220327050   -0.14110265672918
H           0.99841537707612   -1.24426382851811    1.30359276028301
H           2.09123146253523   -2.43558576163711    0.80006609317299
