    26
        -50.46365779  Gyration_radius:  2.44717622059 Dipole_moment: 8.572
 S           1.99988645414811    1.27382612901724    0.54675908989668
O           2.94140644347894    2.34206503385812    0.49525897064711
O           0.70304009286044    1.61447227026601    1.11996446531605
O           2.62953286367120    0.17566017762759    1.54385393442545
O           1.82195250778576    0.52666140124805   -0.70154200656024
H           1.46020962952095   -0.92233341045403   -0.23705751800009
H           3.20372991054104    0.74353250535095    2.04394659684937
O           1.14871792114672   -1.83430680712372    0.02702255214250
H           1.94325783422100   -2.31771594140773    0.25598215540106
O          -0.23818716294041    0.84099792598567   -2.33296727989227
H           0.64164434906246    0.82829326130848   -1.89861800861546
O          -2.55859853230934   -0.47245036381679    0.60580053675265
H          -3.32007015203327   -0.69110489084763    1.14287340043729
O          -0.37957455455047   -0.60358227597797    1.98573380684430
H          -1.75864299299894   -0.50922605840013    1.21702084174785
H           0.19173824561739   -1.22433423254659    1.50656884681834
H           0.02109161887211    0.27759372985499    1.80529170638816
O          -1.50486549849100    2.01330901946342   -0.35907775049071
H          -2.06915349621297    1.31702199640095    0.00443794357884
H          -0.71982722911160    2.04028233426770    0.22262860163130
H          -0.77794522733794    1.44216133178613   -1.75532381256382
N          -1.09206528801758   -1.40520195433437   -1.45700647389547
H          -1.80495625322842   -1.14579518398292   -0.74326475546756
H          -0.26921799218118   -1.79860853188241   -0.96779114952498
H          -1.46503787935200   -2.05529702822739   -2.13874021218642
H          -0.74806561216427   -0.45592041743049   -1.93175448167748
