    26
        -50.46053969  Gyration_radius:  2.59414902933 Dipole_moment: 3.609
 S           1.21214732466960   -0.56661407039723    1.58486170368041
O           1.22214962164664    0.88879980205363    1.57204762791106
O           0.56145317838534   -1.10812124207937    0.40557315711993
O           0.69975524026946   -1.11176465380216    2.82232931266022
O           2.73511951333444   -1.03584306870780    1.48439659372075
H           3.05304054625135   -0.98536220655349    2.38129145455860
H          -0.94545042749061   -1.14012714763534    2.47931789777914
O           0.81310412092055   -0.30629784095268   -3.49231855720147
H           0.74842957564343    0.59828429403953   -3.80358855797253
O          -2.03634725435486    1.60399426707482   -1.27007770299389
H          -2.97226356404834    1.57699803124793   -1.47430168722011
O          -1.81174006688467   -1.00314741971814    2.03380154086540
H          -1.77596382046993   -1.55607295097994    1.24761887873366
O           2.38338774662410   -0.12464006571927   -1.28672247910791
H           1.72551581756480   -0.45200507296096   -0.64724186079036
H           3.22523037655660   -0.46930508875747   -0.98520793458399
H           1.48660523159853   -0.29463853054589   -2.78412934269943
O          -1.14727971529484   -0.79038691432608   -1.69108073398638
H          -0.56901531493081   -0.99165238745677   -0.93701184197865
H          -1.68183357384952    0.69241383487667   -1.50256856895955
H          -0.53732348798711   -0.73986133028611   -2.45760178728269
N          -1.29270943004581    1.48773549087791    1.26750752929081
H          -1.66414170681535    0.55410375218729    1.59820214797346
H          -1.58234672382451    1.63949655452815    0.25825673191411
H          -1.61336049061017    2.24436584447030    1.86233150200849
H          -0.23616270684667    1.38964810952654    1.33431497656577
