    26
        -50.46053940  Gyration_radius:  2.59438351873 Dipole_moment: 3.621
 S           2.07330903972609    0.08968079640815   -0.04928839592788
O           1.61190908620534    0.95023047970240   -1.12889375773427
O           0.98443164033152   -0.67638462468536    0.52899529723725
O           2.85819777813225    0.80064017681277    0.93521183205613
O           3.04709290925639   -0.98895624861574   -0.71020995934009
H           3.87573221873721   -0.52765505040821   -0.80275270402450
H           1.63852252290446    1.35408653366500    1.94984297390391
O           0.75220218077229    1.57019277053418    2.31819163997855
H           0.36300249405262    0.71978069607027    2.54269936823628
O          -2.65025617803216    1.13481123562764   -0.12616124588091
H          -3.34841100100136    1.44160860115397    0.45425104193759
O          -2.01783548778713   -2.80696277219969   -0.99061573885310
H          -2.57327329231269   -2.43482866378975   -1.67793749378207
O           0.49202162062132   -2.06172239144222   -1.70310511774388
H           1.31764752131221   -2.49634196185121   -1.92189184927304
H          -1.09791501624168   -2.67620934521984   -1.29427026186598
H           0.68304322722898   -1.52598833751801   -0.91202415421938
O          -1.68067788474078   -0.99185782806273    0.98721024942243
H          -1.90786814082370   -1.74827036331831    0.40547085488231
H          -0.71570943140358   -0.91159802482855    0.90929883396023
H          -2.32554984902124    0.27127976446712    0.27322445670500
N          -0.28996780663624    2.32705902353249   -0.00531000827862
H           0.02852162064517    2.15623598302120    0.98907979775198
H           0.41593870361320    1.80183567854685   -0.60212491349841
H          -1.25819372160474    1.91379793361790   -0.13584985076713
H          -0.27591474393539    3.31553592880188   -0.23304089489817
