    26
        -50.46053969  Gyration_radius:  2.59411102209 Dipole_moment: 3.610
 S           1.27640429101670    1.58458761675282    0.40240631593726
O          -0.09326916923937    1.15203785713404    0.61230188048756
O           1.95009051146918    0.76896685474263   -0.59723089374837
O           2.03292100902591    1.70437441657523    1.62889513890942
O           1.16955329260247    3.05763489910730   -0.20480724336139
H           2.01758601142890    3.44885564811369   -0.01545109086229
H           1.50305686207251    0.33262869642205    2.44342866903033
O           1.06424661041686   -0.52343270288359    2.64907482661285
H           0.12297875068822   -0.32553676883196    2.64786858988515
O          -0.62415340758608   -2.77662763932290   -0.48680173703268
H          -0.93887641014072   -3.55181237760738   -0.01941066453694
O          -3.08334861550210    0.19177538025566   -1.84523131767429
H          -2.93719409075033   -0.42769313417137   -2.56234803126183
O          -0.86592631263647    1.75590172386088   -1.87574761603980
H          -2.37112633556774    0.85674844308032   -1.92130792376025
H          -0.65249945684592    2.68288733573102   -1.99213517094186
H          -0.54916971728409    1.52750352543925   -0.98336645999343
O          -1.99874649572640   -0.78540056436245    0.43317963535635
H          -1.20838690004571   -2.01875684983557   -0.17854776047806
H          -1.35902315355077   -0.06880778087873    0.57738303117210
H          -2.56321980648912   -0.46234007522712   -0.30105698155889
N           1.63418049987281   -1.65002242628216    0.31118262999030
H           0.78645238328403   -2.15278632770315   -0.08130694071471
H           1.78554804959290   -0.73162438113427   -0.20244493564255
H           1.43526666157371   -1.36230936072182    1.30962328911974
H           2.46665493830519   -2.22675202826633    0.25185077109218
