    26
        -50.46254349  Gyration_radius:  2.49145316929 Dipole_moment: 7.174
 S           0.93872176248481    1.64245625628566    1.43425267223391
O           0.08410652373457    2.53182631882972    0.70160692130225
O           2.24069470530928    1.42627600851349    0.79656851779183
O           0.31525537412296    0.35389143651909    1.73885015822538
O           1.25293148917778    2.32248647959162    2.82812359675623
H           1.87901770500986    1.71341630297478    3.20522153428507
H           0.69093733110498   -1.27099896317409    1.34032174627745
O           0.91250680116191   -2.06677577062006    0.81035179586474
H           0.07683488360775   -2.35588541748492    0.41486882100435
O          -0.50011277285023   -0.04922832950561   -2.26375804385885
H          -0.65129730205100    0.21807266910786   -3.17094793124469
O          -2.23717016782722   -0.26244567616982    1.10850752229849
H          -1.38431446433187    0.00903840756006    1.49635196497736
O          -1.83919471397592    1.53758394232047   -0.81649046047116
H          -2.22391496084918    0.94901658405912   -0.12651466898848
H          -1.18142737794095    2.06801763364119   -0.32022699810117
H          -1.03645596659134    0.62075679806658   -1.69130334681452
O          -1.36523688795580   -2.18760836723117   -0.79003308761235
H          -1.08832579509459   -1.46953950830132   -1.39300182778483
H          -2.04744488290163   -1.07230287507961    0.61394456189418
H          -2.06503163366881   -2.67115996093151   -1.23055284509118
N           1.86157430287839   -0.40059796585720   -0.96857852766635
H           1.03308008517157   -0.17497705129246   -1.55795680997358
H           2.67355633563630   -0.61670211790074   -1.53589647106542
H           2.06780794767820    0.41708197941951   -0.29848861121549
H           1.59290169898898   -1.21169879332080   -0.32522020301977
