    26
        -50.46254349  Gyration_radius:  2.49173381757 Dipole_moment: 7.221
 S           0.15335435597261    2.26626702800523   -0.69528396582374
O          -1.22449519652843    2.47144095913460   -0.23958370249363
O           0.24302963520286    1.69379807072857   -2.00757856205316
O           0.90526183599272    1.52383150740015    0.31740719730028
O           0.80137376033987    3.70863869258366   -0.75834421499884
H           0.62571547527868    4.03846618158421    0.11667918515558
H           0.47269669907293    0.72436760151250    1.77017896850087
O           2.41673700694466   -0.64716759519107   -0.22852281790528
H           2.02643874531842    0.22882517256367   -0.05048872007165
O          -1.13994455054270   -1.84913422635955   -0.81196893952747
H          -1.65166259624923   -2.43123465979456   -1.37464960080076
O           0.00986534897628    0.12626099402077    2.39580264892667
H           0.38402127608658   -0.75323764050928    2.23796405565294
O           0.63375944971477   -2.32069920398112    1.21905197862618
H           2.00246853280231   -1.24662565725518    0.40824574036657
H          -0.02322896948268   -2.24364265241697    0.49911681404753
H           0.88371260333532   -3.24362201829248    1.27501955163531
O           0.70656585367978   -0.89747293974125   -2.25745406369817
H          -0.40766508193026   -1.45636996607533   -1.42342008411995
H           0.51834611610359    0.06020225319190   -2.34590669968493
H           1.49456304795157   -0.92077735663003   -1.66665516430093
N          -1.99871282088813    0.21972477428406    0.72341512496484
H          -1.31292095902826    0.13330335951495    1.53966276944215
H          -1.75919373230345    1.16695778351396    0.27022132330345
H          -1.79590396066157   -0.55278370801429    0.05491903474651
H          -2.96418188513761    0.20068322625570    1.03217211279592
