    26
        -50.46333840  Gyration_radius:  2.64885154564 Dipole_moment: 4.724
 S           0.15784889918859    2.17628362451292    0.83438986198429
O           0.01705955687441    1.55161466004597   -0.49085393683735
O           0.75258201526962    1.25434762014298    1.77500582324205
O          -1.04713547050892    2.82708031271280    1.28126903049910
O           1.22231048871323    3.34633363153268    0.61524424207557
H           0.66014111267495    4.11412079464131    0.59971743969385
H          -1.81930486119382    1.55667240675781    2.13752303202714
O           1.02946075298654   -1.34724254487006    1.30225554910251
H           1.08491381531713   -0.46671007119403    1.72407252796058
O           0.69562945737046   -1.70744377337954   -2.97748209848089
H           0.34801903540984   -1.18788992872046   -3.70442306523000
O          -1.98367017054204    0.67986575810643    2.53718907967753
H          -1.21941016410050    0.52187344213427    3.09767180060406
O          -1.37364913732253   -0.61450729350896    0.29731620190139
H          -1.81341173595922   -0.28843172424662    1.11386171255378
H          -0.99250753044507    0.18786672025138   -0.10518871956759
H           0.09157697866250   -1.39420037050327    1.02834986556771
O          -1.46032651165684   -2.48880352715685   -1.63463248465897
H          -1.56987170524125   -1.78865688567307   -0.96020603521487
H          -0.09519828724289   -2.08182375728006   -2.51881666755419
H          -1.46325842042400   -3.32107239117141   -1.15929300213921
N           1.78574605130900   -0.30673239661171   -0.97525508524806
H           1.14944958781360    0.53494140487479   -0.85480654888126
H           2.75208787797137   -0.02082507713789   -1.08215612326255
H           1.64001489609679   -0.87169220883011   -0.07800634652200
H           1.45090345905260   -0.86496841533359   -1.80274606334563
