    26
        -50.46333847  Gyration_radius:  2.64865987688 Dipole_moment: 4.727
 S           1.94402377782562   -0.28020358632456    1.26473511680551
O           1.24738054673435    0.84434356937978    0.61919376107613
O           1.59510909579262   -1.53113614685615    0.63093108701213
O           1.83411167896349   -0.26054764741183    2.70100350090489
O           3.48905832793413   -0.02998124485992    0.94815248538250
H           3.80057704261331    0.31215519049767    1.77983185977826
H           0.42241394008088   -1.20415265521878    2.94517207988210
O          -0.35968709384956   -1.75998974792750    2.75836883282162
H          -0.01469644612991   -2.50319748566853    2.25658612585712
O          -0.42563418370176   -1.79678146411880   -1.07617977020468
H           0.36300097504491   -1.98815410484126   -0.53052413726923
O          -1.24560735182479    2.21713308194845   -2.40727200081162
H          -1.07174126356991    3.10919245110672   -2.10196887043209
O          -2.99888233080189    1.25181918761995   -0.65894963702279
H          -1.96394999345459    1.87342058561591   -1.82269473851409
H          -3.64432809860678    0.59614709507823   -0.92742106995543
H          -2.43186982889244    0.81905260107439    0.01050723470563
O          -1.25561475922959   -0.11425698053024    0.87344741547412
H          -1.01397414132026   -1.33391166951733   -0.44650973152372
H          -1.17095221864146   -0.70011891692758    1.65836071135932
H          -0.41283090952903    0.37582116914933    0.84929930564988
N           0.67776351957248    0.42911621062181   -1.89464991935678
H           1.44890698219029    0.37722874382946   -2.55011483430424
H           1.02090103969463    0.67192409803811   -0.91938889442823
H          -0.03491469067641    1.14649276657311   -2.18780997393884
H           0.20143636374740   -0.52141507025620   -1.77210591894263
