    26
        -50.46306632  Gyration_radius:  2.54524644217 Dipole_moment: 3.925
 S           0.22898582502364    1.83195294657749    1.28640493933210
O          -0.48249634641859    1.55163030125163    0.05472931953879
O           1.64080209076648    1.46123005198253    1.19356963115178
O          -0.39891963478714    1.25023521838280    2.45552638706698
O           0.18556492975790    3.40077621316813    1.47820171048736
H           0.47848187359681    3.48831277180645    2.37908757325336
H          -0.65331420105604   -0.40725905170808    2.49536567921338
O          -0.62019634557066   -1.36199518258117    2.25383072232388
H          -1.18901853699020   -1.43965959783744    1.47351169006143
O           0.85989979921323   -1.69131097127780   -1.31262167033699
H           0.73201844174974   -2.44018637280458   -1.89594641841820
O          -2.09319453583257   -0.19575257171783   -2.86264280714115
H          -2.72790997828677    0.50766881789400   -3.00318196979561
O          -1.44564120807369   -0.87550872382723   -0.35127802876047
H          -1.18113275773167    0.04406715530552   -0.12597648565906
H          -0.04696261760768   -1.44026264687581   -0.97659420410269
H          -1.91260234104827   -0.77976483100033   -1.20887124073614
O           0.32572510453522    0.90389234781795   -2.45479306237244
H           0.84176887453009    0.12153292739209   -2.22247388523147
H          -1.20614758297658    0.23571162482723   -2.87945394304941
H           0.09912002407347    1.32331271422861   -1.60507689047759
N           1.74150872290953   -1.11895061952892    1.16852539213976
H           1.63611279188649   -1.43448226926595    0.18461443797959
H           2.55492622488003   -1.53197901617910    1.61055775238850
H           1.80114896311041   -0.04800680566122    1.17530145242207
H           0.83147242037620   -1.35520440036036    1.68968390874995
