    26
        -50.45267867  Gyration_radius:  2.74569646672 Dipole_moment: 5.920
 S           1.88009510292103   -0.62482495929476    2.21549858005569
O           2.54582214607701   -1.50663367530052    3.11608442883721
O           2.59673522160296   -0.35433753418778    0.96744922420209
O           1.82408801689410    0.81229709518822    2.97130098243564
O           0.47394086864051   -0.91650547970851    1.94330729088894
H          -0.25526246289030    0.54510305864869    1.83388477199710
H           2.53853843319749    0.70968136389927    3.59101056134739
O          -0.54025452530312    1.45592287407318    1.57042472690532
H          -0.13019818652391    2.03282640345787    2.21752744269571
O          -0.87494554630304   -1.62241637720249   -0.26961796650820
H          -0.46467885571722   -1.66027956813458    0.61378258367930
O          -1.11219883812610    1.14643363098420   -2.58722766938215
H          -1.70049562671584    1.50368409880573   -3.25365267537963
O          -2.50042972853378    0.49683072129828   -0.22173923585002
H          -2.09965716739702    0.97496665626870    0.51564982831290
H          -2.11846822818181    0.87419998526598   -1.03193091528619
H          -1.66409366190266   -1.04187022884139   -0.16846962203222
O          -0.55372270444469   -1.50023581870650   -2.97718616389544
H           0.05536719877304   -2.13903635791240   -3.34864584603163
H          -0.74927768602095   -1.79440066077005   -2.07112817040599
H          -0.94433906998808    0.22075035715432   -2.84419396753368
N           0.77049799308615    0.49709021879762   -0.59105623402870
H           0.15997746890671   -0.35354028613532   -0.68333695994540
H           0.95588973090813    0.91455777613734   -1.49793296942405
H           0.26294750770943    1.15476547947836    0.03111124165251
H           1.64412259929186    0.17497123670815   -0.04091326727195
