    26
        -50.46163603  Gyration_radius:  2.55696783634 Dipole_moment: 2.237
 S           0.90385760683517   -0.00962548406036    2.14642296417865
O           0.89451343830226   -1.30130145595323    1.46127190762883
O          -0.37947894010526    0.64149177119325    2.02382021586720
O           2.04222093666198    0.80418785327374    1.76282012637622
O           1.11254105939656   -0.32234568571509    3.69232850107449
H           2.06004004177096   -0.38713374933450    3.75790979975310
H           1.92557975551460    1.11607184081793    0.19758418419499
O          -0.11609018788735   -2.61130693767560   -1.88897861135240
H           0.73096321477109   -2.89584549183468   -1.53924054778655
O           1.79520943035267    1.37900443422788   -0.74963348933337
H           2.62750381926033    1.75950358493196   -1.03524477653632
O          -2.09290536629700    0.81738752189543   -1.03128210509910
H          -2.98709950361073    1.15893416825095   -1.05500575416944
O           0.17373152403649   -0.05310811906166   -2.47569655550452
H           0.03992715751188   -1.71118360593185   -2.27333729555856
H           0.82148837937881    0.39745588387202   -1.90705541475189
H          -0.68514206370043    0.31262545555201   -2.22335386320890
O          -0.55713209123661    2.51044367873098    0.16494645669613
H          -1.53544001024136    1.53208798982578   -0.59031553540881
H          -0.50986757733506    1.97970997685121    0.98801900520221
H           0.30191606143184    2.36925209020341   -0.26479906734690
N          -1.34121627660697   -1.50104632388471    0.17594712563767
H          -1.67624384203544   -0.57424004599406   -0.17273896174325
H          -1.01127121151935   -2.07270457849128   -0.65278437635784
H          -0.47011051293567   -1.36779647089652    0.78382306751840
H          -2.06749484171231   -1.97051830079663    0.70457299002781
