    26
        -50.45267787  Gyration_radius:  2.74623589675 Dipole_moment: 5.928
 S           2.37317357703988    1.64924565451657   -0.70069521817779
O           2.70653562100268    0.22384822075717   -0.66319330039009
O           3.16759725340888    2.43289369361241   -1.58767873084372
O           2.72331410690056    2.18790959871065    0.79156630590557
O           0.92597909948062    1.83229071914038   -0.79339714178492
H           0.38238283546898    1.73646712030877    0.74761532509763
H           3.57253807703951    2.58756211800513    0.63624296909580
O           0.14421208227751    1.44351346950662    1.66286698321039
H           0.79791801668900    1.86129294755358    2.22659258326001
O          -1.10596588623567    0.21618846556591   -1.48345063481641
H          -0.45508301477973    0.94154879763506   -1.50243901265362
O          -1.69401036121052   -2.29074606924962    1.06230554318819
H          -2.40632456421262   -2.80437164954177    1.44510810409368
O          -2.36860672426509    0.43831582383828    0.86013014764355
H          -2.20727204403703   -0.49077483428320    1.09550165232430
H          -1.70753731728628    0.95753885772111    1.33598281890704
H          -1.74958530068488    0.45878009107627   -0.77848410485323
O          -1.61100525202426   -2.46026892681065   -1.66465552298410
H          -1.24920950488262   -2.90214905287405   -2.43327124203184
H          -1.72740193555403   -2.45711230740149    0.10215437250097
H          -1.55423670772274   -1.50513847621152   -1.83861718415491
N           0.61156815900508   -0.85024422687002    0.30995618116237
H           1.56475245246855   -0.53346192630085   -0.09083439170443
H           0.39962551102130   -0.20591809877546    1.09548074957889
H          -0.09689591982858   -0.64642346513949   -0.43922628508814
H           0.56353773089448   -1.82078653450606    0.60443901353368
