    26
        -50.45267870  Gyration_radius:  2.74584549037 Dipole_moment: 5.927
 S           2.44929560497219    0.84660441301494    1.45602460761354
O           3.22473851727081    1.07018249306085    2.63097888567892
O           2.62405770378618   -0.46933385907992    0.83772579045089
O           3.01762140797164    1.89322629930775    0.35091016166311
O           1.03014451969933    1.18577388725718    1.54157189785358
H           0.64950043169473    1.81587603832201    0.07937069227459
H           3.88554975759375    2.06137698047443    0.70220392195277
O          -1.23068695701106   -0.25555488639558    1.37498571843588
H          -0.50994953756294    0.29409700551349    1.73356509712685
O           0.48132254102590    1.96510278069941   -0.88477848552104
H           1.23465215246632    2.47779041990919   -1.18366130776951
O          -1.81071067087513   -1.37661388357579   -2.01652535972303
H          -2.52897423752466   -1.57764502238868   -2.61767807980023
O          -2.19923738555265    1.09435394095526   -0.71682775224956
H          -2.11635143092912    0.33192972099977   -1.31380531361868
H          -1.76359726047970    0.34717426222148    0.80685580278262
H          -1.43747681732949    1.66150226817482   -0.89318235563940
O          -2.04485277088829   -2.66454761748671    0.38253810000249
H          -1.79738243097180   -3.42920475507526    0.90319716757573
H          -1.90406393593816   -1.88496599542467    0.94657742252665
H          -1.96716379027758   -1.91643488082934   -1.21956814204209
N           0.54303708175960   -0.72377907842070   -0.60913588238172
H           0.49121653177675    0.21130013212287   -1.05661207129644
H           0.41965041698199   -1.46687654080965   -1.29003543974313
H           1.47575927125180   -0.74506040137577   -0.06222914706047
H          -0.21609871289698   -0.74627375116580    0.11753407091298
