    26
        -50.44030466  Gyration_radius:  2.50686500026 Dipole_moment: 3.810
 S           0.65119965147450    2.21536174899655    0.19712256465407
O           0.44966025809889    2.14204524886547   -1.21078804208517
O          -0.42069566591734    2.65437782374253    1.02630782401576
O           1.86984203894160    3.18868509175734    0.45816640137501
O           1.18575542120824    0.87462441663953    0.71798571345539
H           1.49931555614258    0.27192778152512   -0.07655110246940
H           1.71758756718876    3.55465659420351    1.32566674058559
O          -0.07047544816388   -0.94962346107120    2.59538273376349
H           0.59918869331185   -0.33022710591207    2.29160744636778
O           1.91531454889592   -0.50991764810987   -1.23603488173254
H           2.63416750947057   -0.04490151610540   -1.66987805622611
O          -1.89197135619109   -0.96631868560177   -0.89880079534190
H          -2.67128909733752   -1.49272801626804   -1.08226341867297
O          -0.13621820404565   -0.05076049808804   -2.70903291396241
H           1.11768354554320   -0.43118606804983   -1.86414125095156
H          -0.87860041438905   -0.39724048555246   -2.16955896199928
H          -0.09686324808411    0.89377961013722   -2.50006889110574
O          -2.09238157436698    0.47820119597828    1.48555123560162
H          -0.92118646064551   -0.51156893402367    2.38490121590162
H          -1.65173086412899    1.33263090100551    1.38336414933043
H          -2.11875251042722    0.07454640351051    0.60226228604934
N          -0.07244517230399   -2.49357527532654    0.20801609849959
H          -1.21510239116521   -1.59082059483640   -0.47230412370098
H           0.82423666609958   -2.30280539306634   -0.22229396170803
H          -0.04279275930837   -2.11246533428123    1.15935012156472
H          -0.18344626986758   -3.49669779007674    0.27603188875514
