    26
        -50.45267897  Gyration_radius:  2.74566694858 Dipole_moment: 5.915
 S          -0.11581474522754    1.64106235549453   -2.47485229854773
O          -0.42165686613741    1.85989794157306   -3.84978015592051
O          -1.17532895753295    2.01522565345675   -1.53576300821703
O           1.10723285512392    2.65403185693526   -2.13206443797983
O           0.42883060156083    0.32848407767809   -2.13285857438761
H           1.54858476091077    0.61622032346949   -0.97366531681654
H           0.99699183457804    3.29827903291213   -2.82329767966087
O           2.02407408323229    0.87218289610941   -0.14385768444753
H           2.46049496413111    1.69788510117119   -0.36166256747042
O          -0.45224805462014   -1.70093271152702   -0.60975903417113
H          -0.18430820704104   -1.17869965662712   -1.38799657316754
O          -0.31634676174535   -0.84726937849762    2.90286941875910
H          -0.18238022852763   -1.25714619435215    3.75835554419758
O          -2.23537865442774   -2.10281614265754    1.41709203250084
H          -1.71290170394450   -2.18725047515522    0.60120257938613
H          -1.04401242544739   -1.33952949790541    2.47923446039831
H          -3.15658027715126   -2.10623615360980    1.15548227796957
O           1.64298614937583   -1.66004761594674    1.04648962728990
H           2.08965474589941   -0.87600966317426    0.70182013941622
H           1.10742835804808   -1.36038189311874    1.80014125174186
H           0.38532837407742   -1.92722143635298   -0.14359574026208
N          -0.57741976494993    0.72349567696806    0.57668462582225
H          -0.93918262645457    1.34048758169411   -0.23453733993989
H          -1.03050284117084    0.87191327054117    1.47321580883487
H          -0.69204429336905   -0.27043596397340    0.25425352792991
H           0.44449968082000    0.89481102488512    0.63684912673945
