    26
        -50.46163606  Gyration_radius:  2.55701874947 Dipole_moment: 2.239
 S           1.22211616150586   -1.71045808866095   -1.00330865960137
O           1.76186571579798   -0.38318262543213   -1.18467945033865
O          -0.21577868865793   -1.72340169697655   -1.26837950518208
O           1.54964591278598   -2.33660141648825    0.26394789255269
O           1.89199662352342   -2.63240459323110   -2.11347255979991
H           1.80788282875937   -3.50018566801707   -1.73123325688424
H           0.85870473238402   -1.48620183450711    1.43038496115728
O          -3.20360237648767    0.27453622373785   -0.24776909928118
H          -3.28268757145443   -0.68153091891532   -0.22738956977361
O           0.50402830585195   -0.90151700216210    2.14847564886433
H           0.56990604144365   -1.40900822928478    2.95914084570352
O           0.18258720617884    2.46228149803976    0.12675146587986
H           0.50608125534209    3.33383944684553   -0.10249303809356
O          -1.55263312180164    0.89939029414607    1.71573187757900
H          -1.04489630601275    1.62702013990768    1.33111426711751
H          -0.90076994508032    0.20197322469532    1.90175937786082
H          -2.73410229852973    0.52391239285465    0.58878985035393
O           2.13253087514770    1.02746734971313    1.01820897470959
H           1.69570182230414    0.43066268468385    1.64715244623899
H           2.20591871935115    0.50305965339032    0.19299286115150
H           0.97404861528049    1.96320703334972    0.50165969766589
N          -0.98163670102538    0.72330177800228   -1.61077418431299
H          -1.96120701690552    0.65275212019064   -1.21317586520069
H          -0.57446231120625   -0.26249303047989   -1.51816508454584
H          -0.97869107611132    1.01257645404360   -2.58217581498020
H          -0.43254742238113    1.39100482055964   -1.02309407884228
