    26
        -50.46163609  Gyration_radius:  2.55675595826 Dipole_moment: 2.236
 S           1.08775372411193    2.05874463263959    0.04598959849202
O           1.93410185507915    0.92444943286207   -0.24213714374243
O           0.22004240248212    1.77764264225671    1.18879364841383
O           0.34590588699906    2.57317578085274   -1.08989058415558
O           2.04893840213179    3.24528645650253    0.49255835585734
H           1.51914911296916    4.01372594022880    0.30518957199937
H          -0.68651417707985    1.44440672268149   -1.56045078352366
O          -1.25542239476357    0.70652363048892   -1.89973657094769
H          -1.86194319623444    1.10665123805984   -2.52512666752214
O           0.68182673952710   -2.35149255186669   -0.34751920190167
H           1.28601189614421   -3.08919470018549   -0.43459129862675
O          -2.07503499540950   -0.96102698785425    2.27257459796590
H          -2.38853731543083   -0.05830587920867    2.35937817117924
O          -1.99320864491735   -1.44427567358299   -0.32190652698979
H          -2.21300616320554   -1.20384755098501    1.32156272307653
H          -1.19301458799439   -1.98095925589965   -0.40443141598928
H          -1.82313684407699   -0.64695710598663   -0.85228996185090
O           1.14102944049968   -0.63727056026553   -2.22009114081752
H           0.26778268725043   -0.24240019677802   -2.37521710150228
H           1.59166388629485   -0.00759810788543   -1.61859028119149
H           0.88122087821553   -1.73778535224713   -1.12187894873670
N           0.51869632585317   -0.71344553619325    1.81787279884737
H          -0.46102296142981   -0.91978507317503    2.16466901922166
H           1.22168202768004   -0.86580068338484    2.53194642400734
H           0.70604800316515   -1.30902856906167    0.97953095868722
H           0.49898802213537    0.31856727798027    1.53379176974615
