    26
        -50.46163605  Gyration_radius:  2.55679736007 Dipole_moment: 2.232
 S           1.09168236750312   -1.40072867284417    1.50632880884732
O           1.03011899218883   -1.88872461299416    0.14840384597376
O          -0.21609781534047   -0.90893319101976    1.93727247161859
O           2.14870585786421   -0.44091684325048    1.76458761731867
O           1.42710529331483   -2.65335197872937    2.42815234131028
H           1.81391448165733   -2.24078277672655    3.19388920288563
H           1.84669313534004    0.87457220248419    0.90476747180180
O          -2.85073074103666    1.37881287574172    0.60646555680857
H          -2.59978302717163    1.47818354445424    1.52728932862336
O           1.69953972801828    1.64615959749536    0.29952977785208
H           2.29111288961484    2.33678731929604    0.60304741204767
O          -0.57692463850418   -0.09584874245453   -2.40258130934183
H          -0.69333112847475   -0.49677928958682   -3.26428461896176
O           1.90629691564304   -0.23548137491885   -1.71692157633055
H           0.41040679745263   -0.14501359943896   -2.20568761790431
H           2.02664932916735    0.55437627150503   -1.16535403754038
H           1.75250372986623   -0.96127008944003   -1.07591093771921
O          -0.77680043627950    2.21923562929628   -0.79537321834935
H          -0.76739238404410    1.59927337459646   -1.53743048085010
H           0.07138148287881    2.08553312322120   -0.33857709966796
H          -2.15537759850715    1.85508072712512    0.08496886625646
N          -1.78878042452408   -0.93339740688759   -0.11616365668140
H          -2.39204935342801   -0.09545838195371    0.12153754089166
H          -1.09447228117941   -1.01251172124348    0.69487124624262
H          -2.32852887681580   -1.78733345971668   -0.19847616968569
H          -1.27584230520510   -0.73148253400655   -1.00435077544402
