    26
        -50.45788916  Gyration_radius:  2.41140320069 Dipole_moment: 7.663
 S           1.49129550862428    1.69877463038041    0.16427699845394
O           1.72459071592531    3.04945058423901   -0.22074002107945
O           1.22472517641193    0.81525583256489   -1.01080781821719
O           0.15483447368769    1.62625287745140    1.01419035442142
O           2.46455507630621    1.06278871456803    1.03341541646644
H           1.59998105956574    0.03272210182242    1.81803414581818
H          -0.60878649855670    1.88749422566495    0.45280315955155
O           1.08695978415772   -0.74742438151258    2.18614436348068
H           1.31622422113517   -0.79992297438186    3.11471724839785
O          -1.22826529220036   -2.07800136324802   -0.93378972147268
H          -1.89139304162282   -2.76612826395727   -0.99413866374520
O          -2.03908664513578    1.89932640967928   -0.40328530317755
H          -2.21429887733073    2.78238199742707   -0.73139665945523
O          -1.06252111107332    0.39732781118212   -2.30972463636988
H          -0.15536173321347    0.62394522841702   -2.02037516210886
H          -1.19363582732265   -0.52407203340912   -2.04252651010440
H          -1.78799207338245    1.35088404394393   -1.19692270909433
O          -1.59230197713307   -0.63751706671698    1.21354134130463
H          -0.72563470330130   -0.50961598288106    1.63689355443603
H          -1.89102289210356    0.24088779527227    0.95099129845661
H          -1.44317138735330   -1.54998308908244   -0.11282507762680
N           1.36970491426278   -1.61191087118137   -0.32583997898221
H           0.48100911401728   -2.02213092299398   -0.66559006378166
H           1.38009953441134   -0.54859334941469   -0.65664091258370
H           1.35629450514499   -1.56512942233588    0.71089260601889
H           2.18319797617185   -2.10706250153031   -0.67129724899601
