    26
        -50.44412399  Gyration_radius:  2.40825042274 Dipole_moment: 7.591
 S           0.17509711479543   -1.48068370762262    1.34987479248222
O          -0.25953886289644   -2.72933987583318    0.76877764596048
O          -0.13615748968070   -1.29982996530949    2.73781482183691
O          -0.66865414329032   -0.33759805964056    0.55091064723845
O           1.54363324138672   -1.11690858296447    0.97682482829187
H           1.52526615150294   -0.73701842994163   -0.47519564058180
H          -1.58529245245750   -0.48697835714502    0.76558866924874
O           1.53152605495345   -0.42625469640818   -1.44227430255529
H           2.44430644254460   -0.21445533116190   -1.64495815848665
O          -0.32291404398784    2.63741350567583    0.59094367893621
H           0.19132831207261    3.44411687920313    0.52558409909954
O          -2.24288951424301   -0.22548685888537   -1.81378946642826
H          -2.66622425031918   -0.23595085742037   -2.67415313576351
O          -0.62263450919710   -2.23687640092199   -1.76546516947321
H          -1.69206826879268   -1.06935521766494   -1.75907995317422
H           0.23005971894982   -1.82225581830805   -1.94724183420998
H          -0.54538798465650   -2.55477231730419   -0.83291023927229
O          -0.29288911883634    1.36840888029215   -1.57296856217809
H           0.46342797373389    0.68368104288827   -1.50247285216785
H          -1.15020773451564    0.78307240912097   -1.63808144184066
H          -0.34075863596948    1.87087533127485   -0.64644664031618
N           0.94825830171520    1.23790080050858    2.36950849217551
H           0.12350544082853    2.06277404715930    1.31461712406591
H           1.51683944182512    1.67982882539763    3.08254100824958
H           0.29463852116001    0.61181101432609    2.83733097868984
H           1.53773031338432    0.59388175068894    1.84472060016503
