    26
        -50.44764722  Gyration_radius:  2.47843861877 Dipole_moment: 3.528
 S          -1.39924114303878   -0.63082351505324   -0.89505705185344
O          -1.56394354489671   -2.01443341780045   -1.21058568280438
O          -0.26479864778058   -0.00385328786882   -1.52605351033749
O          -1.26807308750424   -0.44842390494114    0.64848622295017
O          -2.67702756342005    0.13905023140426   -1.18149638384995
H          -2.63162457840828    1.02690321722182   -0.65622240900279
H          -0.48539228377489   -0.97671589992454    0.97849534490305
O           1.61803910489665    0.72321570465750    1.92626328970689
H           1.41823873723091   -0.21914672619599    1.89263721435038
O           0.75406553791219   -1.91497983979684    1.33261738410325
H           0.43506298557002   -2.70944395882200    1.76500851952278
O          -2.54264274576993    2.20396852029629    0.24410712741496
H          -2.99661617556496    1.96554149877967    1.05552370629215
O          -0.09520107558099    2.65232349163118    1.01536088546306
H           0.27993729737160    2.00888208228263    1.64244128443045
H           0.50874308263351    2.60017285323826    0.25857911775557
H          -1.59788639197826    2.39982231309053    0.51284646069858
O           1.70664375359016    1.60968507655207   -0.82450421597679
H           0.98834092945013    0.99861848363020   -1.09244021511886
H           1.99210091496450    0.94821348027539    1.06547861556839
H           2.04430884112947    1.99697994411439   -1.63310694555100
N           1.22346144211914   -2.52880245984776   -1.15953178280586
H           1.68470424543697   -3.34837182832308   -1.53476318569854
H           1.58525792955215   -1.71329358491462   -1.63835124555604
H           0.23158755254432   -2.57699746723087   -1.38999600736784
H           1.05195487344520   -2.18809102668212    0.40426347305916
