    26
        -50.44558847  Gyration_radius:  2.40958635317 Dipole_moment: 4.273
 S           0.41324727923441    1.71945667595639   -0.20817198732858
O           1.58688658448190    2.14520729986502   -0.90336087891248
O           0.44969002905067    1.85073525679308    1.23908315000336
O           0.36295308317670    0.09849179308206   -0.42820119936396
O          -0.85758905221027    2.16098188440164   -0.77480071402843
H          -2.07352600966051    1.27389440502743    0.48319916229686
H           0.68929035341731   -0.02755773426341   -1.31643068038518
O          -1.61993275523841   -1.77855026108369   -1.64057859013908
H          -0.96334128691399   -2.35955798384696   -2.02838836787041
O          -1.89723726359304    0.83381732024573    1.32947953391837
H          -1.01967303458768    1.22774779332910    1.56168975135535
O           1.09104757203410   -1.94209425338211    1.51604570909325
H           1.14502158304287   -2.05595257978229    2.46705766824480
O          -1.35152410096609   -1.58011711289733    0.90766443099483
H          -0.34097055619992   -1.69385191119363    1.11423620555662
H          -1.60875670577514   -0.57695148080322    1.11850958639297
H          -1.46439930936887   -1.68152025239470   -0.10077668244318
O          -1.12232366737408    0.56539041631169   -2.79222754517254
H          -1.03854697482610    1.23851863234236   -2.06897048051176
H          -1.49214812827082   -0.89356979738463   -2.06129133675061
H          -1.71505967479076    0.94796008903133   -3.44152657723643
N           2.68378657412594    0.15588949041920    1.21018669280488
H           3.02210716447646    0.35155550013806    0.27536869570373
H           1.68631714360268   -1.15937220113222    1.29884950976900
H           3.45495521175839    0.30855957739981    1.84987839835876
H           1.97972596133467    0.87088944381591    1.39347655562380
