    26
        -50.44412401  Gyration_radius:  2.4082063753 Dipole_moment: 7.595
 S          -1.87421145550419    0.72051388051539   -0.12299132646345
O          -2.27972709823700    1.25652184778419    1.15531098794274
O          -2.90359546548562    0.06700869579527   -0.87737628853302
O          -0.78514120393418   -0.43630158333826    0.24122519091921
O          -1.04030230799001    1.64296219712447   -0.89635613487655
H           0.29427615943575    1.72069924555364   -0.21409687751719
H          -1.25958234871081   -1.10148729150262    0.73217088934445
O           0.71046851272753   -1.19509203548992    2.53752831013438
H           1.26000049404401   -1.32553420995605    3.31247426683646
O           1.03989143542736   -1.95474790837099   -1.58345104884874
H           1.69514495152227   -2.02718059459214   -2.27975365644094
O           1.22204783371939    1.75265494614777    0.19833454191402
H           1.72484398625819    2.37334827096161   -0.33190147506696
O           1.94867099568320   -0.69705073697324    0.38830286027508
H           1.52673763179014   -1.23777200236035   -0.41310464406650
H           1.67039575875566    0.27986756185030    0.26808131221239
H           1.44179548277494   -0.99393042770829    1.24675382355292
O          -0.13303835742992    1.24465840856480    2.63405077113679
H          -1.01791141253163    1.28737118102688    2.19584619311252
H           0.29925857155423   -0.27852237022627    2.63322496818189
H           0.45947114371645    1.69547668587587    2.01953231344499
N          -0.84481466712890   -0.52692194044329   -2.65527511391183
H          -0.68352707124413    0.42731274120518   -2.33738551342514
H           0.25285167949305   -1.42562324291017   -1.97510685644875
H          -1.73496837161336   -0.76036120717546   -2.21781814320288
H          -0.98903489708654   -0.50787009135996   -3.65821934021679
