    26
        -50.44412410  Gyration_radius:  2.40811766469 Dipole_moment: 7.596
 S          -1.11322254802476   -0.92668795852414   -1.39592200252601
O          -1.50884500773634   -0.28633490364001   -2.61634718658837
O          -2.12355425335811   -1.73910396290203   -0.75965799764744
O          -0.82219880528742    0.27607304221293   -0.33490735946450
O           0.20076437227520   -1.57144301806927   -1.44094955435336
H           0.73611925971586   -1.59701289977651   -0.03894606988548
H          -1.63473293420597    0.76947367346224   -0.26425027480828
O           1.35182922831699    2.33441366910103   -0.36272616329843
H           2.26489022623213    2.62055726478864   -0.42492503756473
O          -1.41335398132790    0.78753691850652    2.39862131764878
H          -1.55271633870212    0.84363953767040    3.34570517705989
O           1.14356331581368   -1.58182694922818    0.89141332407680
H           1.99167229483096   -2.02229681321231    0.81483728216205
O          -1.54266806424642   -1.71766981162502    1.78163922522672
H          -1.56887441573621   -0.17711217808550    2.14635583528031
H          -1.88582224929463   -1.79523596575658    0.85805995448582
H          -0.61192994741773   -1.96428952051655    1.71168747216781
O           0.99895207007407    0.86474271985912    1.63961816741508
H           1.09392320884580   -0.10082152660905    1.31618211263854
H           1.09789913700279    1.48443267850162    0.79132806507605
H           0.00494476005192    0.92771028649823    1.93919756898408
N           1.00980687768733    0.89343306937609   -2.49450720324996
H           0.02799662665353    0.92034506977071   -2.76563291306272
H           1.15739709887953    1.78725698074436   -1.20891960488953
H           1.13318492316968   -0.07317042075607   -2.19803512250562
H           1.56497514576050    1.04339102821395   -3.32891898238063
