    26
        -50.44137223  Gyration_radius:  2.59655761923 Dipole_moment: 6.846
 S           2.07263592875616    0.99805235950175    1.35804042133426
O           2.64686099406991    0.96769923039187    0.04083334018282
O           2.42955776135078   -0.07514906122990    2.24434500038047
O           0.58986192550677    1.12844238548838    1.26373340041588
O           2.55157682571947    2.33912993658661    2.06154446694795
H           2.66326484294425    2.06984913159304    2.96818781238888
H           0.33454557738095   -0.52650064602762    1.26627738919867
O           0.34504691867001   -1.50074202389984    1.16250732350644
H           0.99897210752774   -1.78047457540886    1.81119751841712
O          -0.20218268265242   -0.13277371839740   -2.25038272555074
H          -0.89902634243069   -0.69243659266369   -1.89280700242881
O          -2.87423300245702    1.01129744928349   -0.54176654298933
H          -3.42678523901536    1.09237022891320   -1.32095692701666
O          -0.47524480882480    1.90798774176980   -0.81420868742798
H          -1.45359275411289    1.73888147444899   -0.61570466461530
H           0.04370650192445    1.65752561869413    0.08554371724579
H          -0.24907734970579    1.13530939572383   -1.49244347214684
O           1.83381551767080   -1.25633802588532   -1.14618168992366
H           0.65986280169457   -0.57035137007583   -1.96792102271235
H           2.32831243187158   -0.47308037225598   -0.82869306400955
H           1.38126065402999   -1.59639327246615   -0.35461335787109
N          -2.20600902660704   -1.61279386709534   -0.27212731652835
H          -2.66518098862528    0.04988890618339   -0.42698864530492
H          -2.16799436419483   -2.34700981253223   -0.97147195318553
H          -1.32943291032118   -1.64977648948651    0.24945805254491
H          -2.93052132012641   -1.88261402119844    0.38459861914218
