    26
        -50.44137233  Gyration_radius:  2.59669750876 Dipole_moment: 6.849
 S           1.04966920696442    2.42519959329236    0.38916453844819
O           2.09277368850643    2.17958520836800    1.34642203058684
O          -0.26897911871848    2.65384126866302    0.91313688729730
O           1.00992107561707    1.33939237243312   -0.63243633187460
O           1.47869619051031    3.72388504276798   -0.41834838853328
H           2.41123648977588    3.78438065144686   -0.23505878742375
H           1.31778709997145    0.12960649153391    0.48328096966809
O           1.38793085428481   -0.47409225317612    1.25185166257017
H           2.04192684454339   -0.03988602415921    1.80900076984203
O          -2.17578435403703   -0.58009174102048    0.21471934572172
H          -1.68664037867353   -1.40808427725822    0.17116763542123
O          -0.56225398604313   -1.69462293184778   -2.52924182245001
H          -1.31294029323253   -2.19293866007853   -2.85659954910704
O          -1.11496130680507    0.67428748330670   -1.68300806288431
H          -0.21364952234920    1.06039305243221   -1.25944411578300
H          -0.83888423530976   -0.15820944072187   -2.18881405766360
H          -1.65537073198451    0.27368942353052   -0.87293333346487
O          -1.00121012481997    0.48374467611916    2.24300576490255
H          -0.85295811025587    1.39455453826871    1.91522742912699
H          -1.86677073838882   -0.13437744938132    1.06360486341254
H          -0.13955722607753    0.04373615370157    2.13868394078726
N           0.13591290326250   -2.74087631025976   -0.11623185090856
H           0.86812194637211   -3.36716770588233   -0.43345381202614
H          -0.28901449669542   -2.10330802669565   -1.66926153686805
H          -0.42294597587011   -3.26853201380668    0.54622420028503
H           0.60794430948679   -2.00410912156670    0.40934160087089
