    26
        -50.44137235  Gyration_radius:  2.59658557536 Dipole_moment: 6.847
 S          -0.09962837751126    1.31878341380146    2.32055158351366
O          -1.07002129408096    2.07621459078690    1.57870831249324
O           1.21627623736353    1.88529112979023    2.43081969711396
O          -0.02818554824375   -0.07347282441746    1.79081997774258
O          -0.64484351302565    1.15882998388207    3.80378403563852
H           0.15044624083451    1.21051354640357    4.32502458692778
H           1.18949142234536    0.28779919348641    0.69976482735989
O           1.80967023674211    0.66541007133902    0.04187508810440
H           2.35217993512317    1.25843992702516    0.57167687888885
O          -0.64629876418573   -2.91377677497300   -0.82001277439075
H          -1.15194158407439   -3.32165129210979   -1.52497427503686
O          -1.41486624851027    0.23546732092945   -1.74976760344073
H          -0.66217961929210   -0.26172220664505   -2.08591255094472
O          -0.17823286384686    2.32789628270886   -0.90232781835972
H          -1.04512605981414    1.13832690313268   -1.49915917308145
H          -0.59377481135983    2.44629269160608   -0.02351789656856
H           0.67712124528298    1.90444238525368   -0.71250728107781
O          -1.84273482327918   -0.98708350618237    0.40034200674064
H          -1.12850047256657   -0.56993300704283    1.07616904556847
H          -1.79184554023839   -0.38924555127048   -0.46485866008181
H          -1.43504780588090   -1.85789458662277    0.08299995260557
N           1.30349044804361   -1.40303802725124   -1.96913072673953
H           1.34081846364566   -0.99037507975749   -2.89535163130691
H           1.55131028860682   -0.66978974307757   -1.30372052478901
H           0.08459027040033   -2.39566126614845   -1.24272105973823
H           2.05783253757311   -2.08006356462929   -1.92857399716645
