    26
        -50.45514195  Gyration_radius:  2.59777535699 Dipole_moment: 7.061
 S           0.88146436448860    1.95753163472232    0.79065229685420
O           0.68668122465671    3.36691617678743    0.61790606751410
O           1.47491291231127    1.28149329239751   -0.37346569275214
O          -0.25121850075635    1.21871197921366    1.30389642694153
O           2.01800797075315    1.80963858702108    1.93113414890707
H           2.34330897384644    2.69937299619205    2.03247256483970
H          -0.23992119608344   -0.26948294221640    1.75197294838795
O          -0.13077010583466   -1.23608400047271    1.98703999416670
H          -0.21693495182598   -1.28398464966613    2.93980229529069
O           0.21603376691415   -2.50765463125198   -1.79120273849857
H           0.17140925153402   -3.45786840532264   -1.90446798770052
O          -2.75342360187684    0.50178635886601   -1.08288465975922
H          -3.14565108123301    0.52900386433163   -1.95713816234471
O          -0.78534238824046    2.33544335653197   -1.45362075756535
H          -2.05240389092910    1.18502110979947   -1.08606467611908
H          -0.64802640448450    3.03741244437208   -0.80579321662193
H           0.05040884203164    1.85046943195765   -1.44805723917092
O          -1.77572907936298   -1.86168604948415   -0.25994099108059
H          -0.62097780063366   -2.25069013828875   -1.30242384722724
H          -1.37665135796299   -1.68439872216606    0.60283375253947
H          -2.18797986180483   -1.01371348291109   -0.53452327251641
N           1.69266150497659   -1.26050594539269    0.01149524025215
H           1.13288845524561   -1.41645499610423    0.87514362711875
H           1.22121490631530   -1.78082794388481   -0.78251002125984
H           1.63771735211800   -0.20449330302908   -0.19233801947439
H           2.65832071585846   -1.54495604201538    0.13008192935539
