    26
        -50.44977111  Gyration_radius:  2.61691645693 Dipole_moment: 5.417
 S           1.67610136550896    1.79032982416012    0.44686376779123
O           1.35357336914509    1.55749056238850    1.83281461575325
O           1.01545348326694    2.91086433415852   -0.17513020567361
O           1.47705998411099    0.55734036662484   -0.34974230879506
O           3.23156339583865    2.09111820360428    0.37230239324994
H           3.29859267391598    2.67389619311568   -0.37812822513409
H           0.80638497358196   -0.47724445710977    0.76865250133784
O          -1.91075089595767    0.34215867892975    0.44009997278961
H          -1.27757003116668   -0.23954707077307    0.91735635937696
O           0.24579055482826   -0.91970078070331    1.44574395857440
H           0.49472132729269   -0.47016306926661    2.25985763184185
O          -0.89740485826383   -1.93985337866339   -2.45424842487571
H          -1.81774977119866   -2.13418369754935   -2.64037691223595
O          -1.08074515895350    2.60500876781107    1.45251838764174
H          -1.78574228313864    1.24161788732031    0.85112087511570
H          -0.33024320836070    2.27411898713650    1.97339790597982
H          -0.63270037846074    3.04402740999730    0.71163046873846
O          -0.64172689254267    0.47492372173336   -1.68876715011196
H          -1.29317505180734    0.45921707150888   -0.82034058803854
H           0.28988350171529    0.57221734133933   -1.26194220950125
H          -0.69434021943034   -0.47465739720157   -2.08258139307515
N          -0.30166043437376   -3.25821880763134   -0.23635532831875
H          -1.01574039545777   -3.86565619464148    0.14610964546418
H          -0.64746058141123   -2.46895418107358   -1.63585273776864
H          -0.10388871622374   -2.54014220896665    0.45720624139934
H           0.54177424754809   -3.80600811626914   -0.35220924149410
