    26
        -50.46933052  Gyration_radius:  2.44152672252 Dipole_moment: 6.755
 S           0.44170492097845    1.15052398195003    1.46659304550275
O          -0.95481032224048    1.09612091079990    1.10662489514060
O           1.32026527517008    1.13669594610341    0.29512411095695
O           0.84393642936272    0.12718433109845    2.41461053595777
O           0.67138474690400    2.53845702323948    2.17665308754621
H           1.54800772083181    2.42319455311875    2.52524042452149
H           0.53608083617375   -1.38447582492901    1.98849467740215
O           0.40975174071569   -2.29522726752700    1.61250687032996
H           0.47493638179719   -2.90034388183779    2.35272729930685
O          -0.29992268663706   -1.12913455979630   -2.27898502835057
H          -1.00387111158178   -1.23710658663321   -1.60091239598955
O          -2.28705240961707    2.21383326790064   -0.95328292683572
H          -1.86561976650834    1.95270038245871   -0.11441407234594
O           0.04905227554619    1.46947010174837   -2.13018042012454
H           0.57189050701910    1.50281804680188   -1.31268034965606
H          -0.22449291461996   -0.14756009358477   -2.41749369201973
H          -0.81010470539135    1.87134307990411   -1.89735725547228
O          -1.68787651706304   -1.24832463472826    0.00336186513927
H          -1.19484547398116   -1.86541051675927    0.55859067454570
H          -1.54172659190799   -0.37455573546605    0.41043013180172
H          -3.00833066068731    1.59553748351898   -1.08755851520722
N           1.63593370750810   -1.31912371783597   -0.62206097494542
H           0.86304278072000   -1.32885135640947   -1.42153051600072
H           1.64018049383744   -0.33111584521880   -0.25637705508232
H           1.32227503293904   -1.93006626710615    0.14955176006434
H           2.55021033077535   -1.58658284085496   -0.96767619619042
