    26
        -50.46827133  Gyration_radius:  2.47338902096 Dipole_moment: 4.497
 S           0.05072272148422    0.11917806794349    1.71728403889850
O          -0.40921293313548    1.19455740479849    2.55846015976194
O           1.19821520663850    0.53564276984431    0.88084056416897
O          -1.00591092066332   -0.39452417803420    0.83971779409565
O           0.53196362055165   -1.03330419518149    2.62919244259007
H           0.74863533247160   -1.82410135251863    2.05901908045115
H          -2.45118073400286    1.14684687764480    0.67978918066656
O          -0.70206877013799    0.94307890724059   -2.85208561756552
H          -1.61546318685124    1.00550756748427   -3.13649995397236
O          -2.20915480095871    2.05488313829918    0.90184351146313
H          -1.66259423315736    1.92720813004653    1.71248050683436
O           1.27864615365051   -3.02035548227574    1.13129971594438
H           2.00586374781750   -3.44549597499012    1.58967316351393
O           2.14711932748251   -1.37501830599084   -0.70493597556288
H           1.98301441929518   -0.60205920508097   -0.12596430043838
H           1.68456809889086   -2.49926578645544    0.38338225963231
H           1.37397149827625   -1.40210132970690   -1.29073177013238
O          -0.49682657647355   -1.35435006496289   -1.49223198978640
H          -0.89203253289604   -2.22717669560839   -1.51401302284201
H          -0.68643582444852   -0.99816838572722   -0.57806278217652
H          -0.58825681374967    0.04218134875121   -2.48169150131279
N          -0.04767058226643    2.26528276467968   -0.59800877887788
H           0.39517066507518    3.17422955857128   -0.68180739346286
H           0.56763791836441    1.59905604609974   -0.02980161716847
H          -0.96497044130266    2.32544783025566   -0.05754026100673
H          -0.23375033990532    1.84282054488629   -1.53960744372825
