    26
        -50.46827145  Gyration_radius:  2.47332605892 Dipole_moment: 4.489
 S           0.38974738503377   -0.07075482234777   -1.67517420320448
O          -0.46907475559045   -0.38723277587973   -2.78769274431231
O           0.58249936040868   -1.23884860230703   -0.78739394590256
O          -0.12160558127670    1.04620779253682   -0.87436249186226
O           1.77632672357609    0.32358577711223   -2.23454727667802
H           2.34563903320020    0.65002072076986   -1.48172397190196
H          -2.19768410980961    1.15941513273011   -1.26759598481868
O           3.31641254281440    0.98682028391908   -0.25026511226172
H           4.20294006664653    0.71499988890992   -0.49496241525811
O          -2.65889451407846    0.39789987184960   -1.64161636277990
H          -2.01335987181855    0.08063891675595   -2.31588978752941
O          -1.87549198339951   -0.13723775556624    2.44527646424904
H          -2.56485672704828    0.51760353405806    2.56856307645424
O           2.17214108598201   -0.78506712553237    1.29416567386022
H           2.99299336947473    0.32080331358342    0.41855944802443
H           1.55692965502426   -0.19059050884052    1.75208471511751
H           1.65046016298619   -1.13910421842418    0.54441771398225
O           0.30051846955354    1.20923593269502    1.65816294857916
H           0.69044841698630    2.07160850994635    1.80912333806267
H           0.15642377280366    1.15030801348639    0.67110324476343
H          -1.04356858223666    0.36120110156794    2.29883082481522
N          -1.85413186545712   -1.43096867192599    0.08245130343172
H          -0.83128938650001   -1.46088429451078   -0.23100497488466
H          -2.33074282816486   -0.75315749549084   -0.58892592339035
H          -2.26835417548641   -2.35583123314979    0.03391420161439
H          -1.90442567357993   -1.04067128594707    1.05450228182401
