    26
        -50.44137246  Gyration_radius:  2.50057441555 Dipole_moment: 4.977
 S           0.80460304634439    1.91394590113082    1.25207923310731
O           1.10181183196036    1.98972313183002   -0.19508766265777
O           0.70529617977520    3.17923415475347    1.90361631752467
O           2.12393662194205    1.22156486826375    1.87258673657530
O          -0.27667729913434    0.97821556618311    1.46974099907893
H          -0.17723873467043   -0.59732885149842    1.71611250687660
H           2.46753922340867    1.93923168090514    2.39447476631562
O          -0.11604330041571   -1.58266050033229    1.80678633546887
H          -0.48934795930021   -1.78673273408874    2.66537474986391
O           0.17526943215496   -1.06157992855045   -2.20642004969312
H           0.63831901617806   -1.13284977535592   -3.04176904152668
O          -2.81816235432597    0.45103802698180   -0.37608375177479
H          -3.61387920117335    0.40171490166486   -0.90882216216764
O          -0.76765758453813    1.25066952628833   -1.61899267089697
H           0.00874131231681    1.63283557833622   -0.98729522924452
H          -0.42155505611655    0.33849988064448   -1.92773517795887
H          -1.60120799192409    1.04235675860561   -1.03689304976226
O          -1.75705397785127   -1.93661093982664   -0.31142032730725
H          -1.18262893094533   -1.92457944471265    0.48304010416568
H          -2.50137440186085   -0.48609034163297   -0.23953007643609
H          -1.15367446218423   -1.88252027186916   -1.06366329529125
N           1.85625413493947   -0.80056296840948   -0.28008406300175
H           0.89478373498645   -1.03356336086307   -1.46276470262986
H           2.83704829391059   -1.04142135759595   -0.34170134934421
H           1.79075115370546    0.19924430774083   -0.09884858134575
H           1.47214728281407   -1.27177379859438    0.53329941205973
