    26
        -50.45316400  Gyration_radius:  2.7632312356 Dipole_moment: 6.501
 S          -0.62981277678896    1.14180144276440    2.73709569615849
O          -1.82892181781215    0.52145753091765    2.17076152220545
O          -0.56015128812488    1.13818839686759    4.16075513460529
O          -0.74101095776755    2.70538978576402    2.30958951702130
O           0.56358704264856    0.68298297617863    2.02848372618881
H           0.62798274321868    1.62878837877343    0.69845908238098
H          -1.08166942649254    3.08113418665126    3.11443880273597
O          -0.42240078595755   -0.94142669487662   -2.80877711727326
H          -0.40673949394793   -1.12508079628935   -3.74849220426597
O           1.13270240314563   -1.38291015325002    0.41004764497806
H           1.11588763097496   -0.80260260317556    1.19280155768790
O           0.46524696149134    2.09143187815408   -0.16160864155109
H           0.16662210907067    2.96714877245465    0.09052823467216
O           1.86664172018867    0.16063439271099   -1.63887309469799
H           1.62787065703016    1.01759820733678   -1.26136993183796
H           1.64145517480131   -0.88385412323876   -0.27231369696774
H           1.11142126289982   -0.10712443373809   -2.19002523803789
O           0.08298744368897   -3.16962716334518   -1.35429368221859
H           0.70679991447085   -3.84743890637641   -1.61828832119664
H           0.47259166631022   -2.73060247823194   -0.57744559062935
H          -0.29085255456315   -1.80144080653958   -2.35574801252278
N          -1.15279976307969   -0.07931029235211   -0.21166049833822
H          -0.37147292810629   -0.76253095873713   -0.05397320002552
H          -1.57477056883843    0.12297029058448    0.76454696409538
H          -0.71077127493291    0.80515713425284   -0.52408922693172
H          -1.81042310354398   -0.43073396325944   -0.90054944621888
