    26
        -50.45490204  Gyration_radius:  2.54725578682 Dipole_moment: 5.622
 S           0.04941865645679   -1.35921917066419   -1.93114473440677
O          -0.71380030066239   -0.26310900224091   -2.54407917216196
O          -0.78067011700585   -2.45913070266198   -1.51303346404841
O           0.94964369542309   -0.84788287541493   -0.91950238798063
O           0.97566033117323   -1.93385031970152   -3.09716311916542
H           0.44708409793928   -2.65078212760193   -3.43318214443996
H           1.64514614653366    0.49477143295719   -0.45505838080408
O          -1.75370861256903    0.98779424206658    1.06766529401981
H          -2.68050010888357    1.06110760645453    1.29807126488863
O           1.94982803817806    1.41732849693588   -0.23766818421856
H           2.88781807641065    1.43660734842388   -0.43075691035191
O           0.83968513151404   -1.48679853286120    2.60268364887838
H           0.58895612265771   -1.67722970845730    3.50781656255225
O          -1.30698109288881   -1.51970305142799    0.93386964635942
H          -1.57422372630425   -0.01326571682182    0.98984857518353
H          -1.14365659188324   -1.91354281773424    0.05611549303710
H          -0.48178264831613   -1.65354821462928    1.44736756360192
O           0.78522296107249    1.20326130526773    2.29932871338358
H           1.30781224422672    1.33815430747376    1.49363233347904
H          -0.14038153730893    1.23981626206886    2.01922037190421
H           0.94280891931611   -0.51212472888543    2.54462028224741
N          -0.56234606784072    1.85917094542766   -1.14462491492665
H          -1.11023788363232    1.61754376966346   -0.27897106841391
H           0.43272415276081    1.96274733021109   -0.87860525359819
H          -0.63200526088173    0.98276489294119   -1.79402425468764
H          -0.92151463547528    2.68911902920668   -1.60242576034486
