    26
        -50.45316397  Gyration_radius:  2.76351063425 Dipole_moment: 6.503
 S           2.94468632541636   -0.59371950970970    0.41275928382664
O           2.34277173143416   -0.16916817218464    1.67806196607549
O           4.05603994663577   -1.47765001683494    0.53667400990340
O           3.54343305349094    0.77283099029348   -0.23075837317071
O           1.90653167705228   -0.98726735548159   -0.53819892844482
H           1.39816522572487    0.42460835121727   -1.18284278055006
H           4.45955874306583    0.69192840044335    0.01249023296774
O           1.01787427083809    1.32279797471371   -1.35284876808557
H           1.78309596072357    1.89410237747119   -1.44025033967498
O          -0.68489102093519   -1.66497895834852   -0.34574605125219
H           0.27735965746233   -1.73176575561877   -0.48476714100936
O          -2.69949309592147    1.21754992058172    0.42554877333876
H          -3.55274309739323    1.64881723436799    0.37076652174674
O          -2.94690078134197   -1.38267109188012    1.14151690321361
H          -2.14225931593427   -1.71331022751937    0.70424068104526
H          -2.86929603290611    0.30552717952279    0.74429517333364
H          -3.66180641650961   -1.94897044851944    0.84744868509565
O          -1.52794553679679    0.29968576755214   -1.94207337401709
H          -1.98885967852336    0.76658177605575   -1.22410091750756
H          -0.68510213616259    0.75816579397753   -2.05734074779949
H          -1.02049661002384   -1.13260287713675   -1.10569502203834
N          -0.01204815389678    0.56088340246886    1.03283879471638
H          -0.64761539909433    1.01194014038996    1.68331387206629
H           0.18211632163673    1.16267044309981    0.21101705499906
H           0.95251061776330    0.29306143137762    1.44505883862382
H          -0.42468625582792   -0.32904676032483    0.65859165259650
