    26
        -50.45316408  Gyration_radius:  2.76340461428 Dipole_moment: 6.501
 S           2.79898662091765   -0.40452076632179    1.09358941322501
O           3.94422212979156    0.01001384577103    1.83412796084738
O           1.85303273033107   -1.24588257106589    1.82902275773178
O           3.36668803490315   -1.36707795146631   -0.08570142840386
O           2.08714734741756    0.64159119672346    0.36159938769295
H           1.58470293340729   -0.09896032776561   -1.00445288501060
H           4.19713968135152   -1.63441299275256    0.29365156267974
O           1.15078502283844   -0.67523494693913   -1.68267036443891
H           1.83689296093477   -1.29018499972263   -1.94860044464233
O          -0.36637349887245    1.72413375428428    0.50470593041925
H           0.60080171702914    1.62175135213145    0.56641048807124
O          -2.84895332984623   -0.58969392403838   -0.69829506140761
H          -3.70785422024442   -0.72044709311943   -1.10094795710471
O          -1.01828744765380    1.07613277016551   -1.99976184209329
H          -0.56448675677825    1.73610118607064   -0.46188192359804
H          -0.23665269423591    0.55081671596283   -2.21661453733055
H          -1.69831513609021    0.43871743181467   -1.72195791402512
O          -2.94475626496159    1.28247407878870    1.25640662856918
H          -2.97924055916558    0.05293215775259    0.03130788136295
H          -2.02228489705647    1.58641831013946    1.18833300233667
H          -3.48899640892171    2.06995337868218    1.21169432016400
N          -0.33934583958729   -0.97845877028194    0.55777502071422
H          -1.16763096308131   -1.52767043560484    0.76449585299000
H          -0.53206600234445    0.04826668271722    0.66258134682131
H           0.51815358243309   -1.18729098599031    1.18485924297933
H          -0.02330873246611   -1.11946710588296   -0.41967643856031
