    26
        -50.45316419  Gyration_radius:  2.763741972 Dipole_moment: 6.492
 S           2.65404661213827   -0.20548430218011    1.45228234021783
O           3.65674365996672   -0.92467931548500    2.16590059215928
O           2.88499891733541   -0.07813938773065    0.01217532776677
O           2.72850306240885    1.31796428365188    2.01207906270346
O           1.26903163512258   -0.59356076480747    1.71308635804337
H           0.44153458105341    0.81213463782956    1.63457557279377
H           3.61468712794790    1.33219159813040    2.35777585495559
O           0.00753015236170    1.65937709503404    1.36241648607919
H           0.56374231964372    2.34438575769406    1.73796009972713
O          -1.99016026100807    0.71924340934991   -2.11676975311259
H          -2.73047243472328    1.02137853089617   -2.64372333302651
O          -0.70909901538625   -1.67167535926319    0.25140294148329
H          -0.00431821636606   -1.57184573099696    0.91695716847710
O          -2.37749190847645    0.37515394757438    0.63109310186088
H          -1.77048575998568    0.96641519521757    1.09576482426781
H          -2.35196836511618    0.64771170167058   -0.30215612993429
H          -1.43825063719339   -1.08032037368618    0.55530757339228
O          -1.69594871713712   -1.96919125295767   -2.26788773383856
H          -1.91592848819172   -0.24667002111460   -2.27021576983912
H          -2.42838296411850   -2.58542509057937   -2.31560926015732
H          -1.28624562962162   -2.10266715576247   -1.39479830778341
N           0.57237643962165    0.37945511156777   -0.95583411131710
H           0.41981762030129    0.61886171395866   -1.93043373607787
H           0.04613070167646   -0.49071306145273   -0.69454745748290
H           1.60456876379706    0.19809699909807   -0.68417465495585
H           0.23504079396485    1.12800185429245   -0.32262702639048
