    26
        -50.44678699  Gyration_radius:  2.40766427049 Dipole_moment: 8.131
 S           0.76904036247961    1.88419408692716   -0.69344393606122
O           1.33498820387768    2.79251909359666   -1.62905628365137
O           1.02948479795777    0.47167683801236   -0.95548628744203
O          -0.82796927322366    2.05043723273072   -0.72799797929293
O           1.05989932379279    2.15250346782956    0.72466419159897
H          -0.48985331112215    1.77071498314267    1.43036709431890
H          -1.11596341242825    1.77912484446906   -1.59986251905459
O          -1.17324492289633    1.28386209046067    1.93541562027641
H          -1.92984114029325    1.87029402118088    1.98249348583423
O          -1.09262673351856   -0.21932699862656   -2.31460747446846
H          -0.23125887349159   -0.01521054788391   -1.88538819717785
O           0.22142958477970   -2.26522503348929    0.63964003837008
H          -0.03837328636400   -3.04796705347214    1.12724001480391
O           1.13434704257701   -2.10383169931292   -2.08937802090625
H          -0.91707521529422   -1.02048152763345   -2.81854565171728
H           1.47090889610240   -1.21268451802324   -1.94298410627614
H           0.86993532648616   -2.40215127351521   -1.21093321491899
O          -1.87790633935761   -0.83169239257519    0.20513244958445
H          -0.63090742682853   -1.77532286068605    0.41518896469197
H          -1.72183821394809   -0.02951100165858    0.73171876648374
H          -1.77763657912248   -0.57386232646376   -0.73556974268163
N           1.20674483641571   -0.13026444566001    1.89488495597604
H           2.06771786572876   -0.28770706398338    2.40921341655932
H           0.41825883152230    0.05022436671093    2.52228411963300
H           1.28032673698043    0.77248508570699    1.29623677883043
H           0.96141291918755   -0.96279734778338    1.28877351668767
