    26
        -50.45316416  Gyration_radius:  2.76373218985 Dipole_moment: 6.496
 S          -1.88706705527939   -2.37217728185110   -0.08311404751344
O          -3.03547804684489   -3.09467862079396    0.35389056393103
O          -2.09207218905560   -1.53318586703179   -1.26535550894942
O          -0.81979415849114   -3.49855238895830   -0.56449496463611
O          -1.15654358625082   -1.63304082085226    0.94498544549042
H           0.40771119373696   -1.76611521944106    0.49512468651369
H          -1.40508251941327   -4.22756729910588   -0.74048868334647
O           1.28403937448615   -1.72143555623318    0.03651725089818
H           1.40613938856077   -2.59818486142849   -0.33223858507477
O           1.71530923738313    2.25292026057524   -0.96906017317711
H           2.40173967199363    2.89064975967005   -1.16684053281353
O          -0.64939803065042    0.96089155225229    1.42038461428341
H          -1.01614047869098    0.06233792285720    1.50855124734113
O          -0.39062337366111    3.41633358006117    0.27518090393691
H          -0.69435294357038    2.63508065014007    0.77053046197396
H           0.97151914818143    2.75833594238253   -0.57732058603178
H          -0.30599004172397    4.12283434775993    0.91710750176159
O           2.00082653653162    0.66992226559678    1.31829310485447
H           2.03003638161313   -0.25544633502139    1.04130874351194
H           2.08777780131338    1.19436900263094    0.50382461444194
H           0.30855131113380    0.87253528372455    1.63983492278986
N          -0.22454790732080    0.19599150317912   -1.13767733094400
H          -0.44005114770915    0.68918177588445   -0.23631904177876
H          -0.03625216761307    0.86115818776824   -1.88103753401914
H           0.59631106827589   -0.40979665584056   -0.95202314062588
H          -1.05656748694236   -0.47236112794420   -1.31956394282308
