    26
        -50.45316413  Gyration_radius:  2.76329987791 Dipole_moment: 6.492
 S           2.64896852424156    0.98323167828307    1.09917737016638
O           2.70483307463268   -0.46502753556330    0.89204058117265
O           3.89749061358227    1.66105123643086    0.98250103773159
O           2.20302118446598    1.15468830455698    2.65207710880303
O           1.52706761654656    1.55991811739154    0.36047175618347
H           0.23850845096847    1.30351795090431    1.33037626237920
H           3.04647718022817    1.32896014690230    3.05609827882888
O          -2.27517623764400   -1.84984667746016   -0.59820256609458
H          -3.11441732566316   -2.29505662426167   -0.71849779975984
O          -0.02566816878914    0.74715304576458   -1.67416377336127
H           0.64310991519035    1.24063051466054   -1.16535128300118
O          -0.49559838156750    0.92229145999232    1.87444324270924
H          -0.20177415576678    1.02881598895509    2.78105928601483
O          -1.02437283838617   -1.43120868670904   -2.96439752049991
H          -1.86312603002939   -1.78928345280664   -1.48614617277059
H          -0.52913395562340   -0.63321470501946   -2.70757273841481
H          -1.47863279242706   -1.21227818012622   -3.77925209354554
O          -2.29281529656129    0.92781975575003   -0.27983851174409
H          -2.44190066056478   -0.03328276478373   -0.28326516906823
H          -1.91028918335936    1.13275564858698    0.58367303842271
H          -0.89473136568194    1.02757141978445   -1.30013361414746
N           0.31697620007076   -1.10092000546846    0.26885306000095
H           0.16787282321167   -0.56036674057985   -0.61877046184856
H           0.01223015391108   -2.06359222584192    0.16495423435513
H           1.36176378864563   -0.97568663516701    0.52367947751363
H          -0.22068316364138   -0.60864104415755    1.00618696994901
