    26
        -50.44574841  Gyration_radius:  2.41333999325 Dipole_moment: 4.197
 S          -0.09620117541627    0.61204056561920   -1.66926854134057
O           1.14824204671493   -0.05281974319048   -1.99624272063787
O          -0.21959623335522    1.98957115628724   -2.03745154254872
O          -0.06404423488571    0.60316053743497   -0.04005083149131
O          -1.27318134003463   -0.20072065424164   -1.99327937377929
H          -0.71840541961624   -1.68673082855893   -1.38983040514755
H          -0.70709640276251    1.25575249890336    0.24333855280013
O          -2.49462948444579   -0.24969907154244    1.49864281941570
H          -3.25995319051448   -0.82297670150422    1.42162516984443
O           1.80172050115027   -0.39602199392105    2.09737155352376
H           2.49585094205386   -1.03161697816669    2.28300011161472
O           0.01322833511049   -2.17916281774333   -0.95177281075523
H           0.77561641517308   -1.66509250467010   -1.28303912118782
O          -2.65646822829486    1.49149596111456   -0.58622000311565
H          -2.30967031332074    0.83358879712251   -1.23054036214366
H          -2.41565553324343    2.34122229204936   -0.96457718267536
H          -2.60129622417781    0.43845494972073    0.81397025609414
O          -0.29618059222356   -1.65585252906293    1.47999054148114
H          -0.15523938791116   -1.91555525482358    0.45835519899681
H           0.53563235298924   -1.08138473179637    1.74674507963847
H          -1.10561175815396   -1.05390982134475    1.51227936880648
N           2.80857679948261    0.93205875680993    0.05745145450384
H           2.12648029574481    0.15936051823845    1.31563440189869
H           2.26717303155930    0.58076757677325   -0.73593738054118
H           2.61041258265289    1.92290324362431    0.12163304051205
H           3.79029620568516    0.83116678690081   -0.17182727374659
