    26
        -50.44574815  Gyration_radius:  2.41289550987 Dipole_moment: 4.176
 S           0.40443945391510    1.57793221851990    0.71558409250233
O          -0.17080013155254    2.83008211887827    0.32908218910999
O           1.80521201307834    1.36969824166852    0.41174551863627
O          -0.31462685952721    0.46336928810246   -0.23068420560316
O           0.05129876780415    1.15263765309045    2.07422979233129
H           0.89528276437838   -0.32066306805058    2.09722423858188
H          -1.23834433502586    0.71601217360651   -0.28441031364973
O           1.47876132138230   -0.94525694939552    1.60840617143809
H           1.96069940908776   -0.30901437565951    1.04422676372004
O          -2.44220955143108   -1.32329210471893    0.90465922269840
H          -2.71158480420850   -1.72698126292080    1.73214280809981
O           0.58746455037339   -1.63214237413515   -2.18815398307116
H           1.33002627277581   -2.18636315208102   -2.43648874379918
O          -0.11170203288482   -2.23326859940546    0.16113881343978
H          -1.02133525047756   -1.85415281672155    0.37863139612387
H           0.12010655561732   -1.95488942849677   -0.81973423794444
H           0.58353584397637   -1.72071072815451    0.78167926165438
O          -2.43513931669524    1.36206860586282    1.34826100897041
H          -1.56678248776029    1.33819032201837    1.81095073443079
H          -2.53615569005014   -0.35944163961601    1.02985430028468
H          -2.48870502268965    2.25291890939969    0.99256488125403
N           1.63493341033579    0.78029458999870   -2.33949988420147
H           0.92012842197203   -0.67682020915819   -2.22880180210494
H           1.76484942336867    1.03487270424358   -1.35755096851562
H           2.52104588742744    0.91496237628926   -2.81189156068430
H           0.97960137679514    1.44995746677233   -2.72316552369644
