    26
        -50.44574826  Gyration_radius:  2.41346083972 Dipole_moment: 4.200
 S          -0.00925864319923   -0.29671095193704    1.75638355068805
O          -0.24040156378448    0.69670081822556    2.76033844661996
O           1.32112831631297   -0.86392736669620    1.67866911905429
O          -0.12169656294940    0.49270366275974    0.33553389245215
O          -1.06293056777012   -1.31310634674975    1.66818917905847
H          -0.41430704108464   -2.22878218818568    0.39506321391698
H          -0.85676243665034    1.10203467088819    0.42700616757378
O           0.32214782340642   -2.34335484490174   -0.24848345310660
H           1.05411899302563   -1.95913145922472    0.27286956999751
O          -2.57758852992006    0.18442103894954   -1.36201528536235
H          -3.27290006953057   -0.44494620394071   -1.56365675565476
O           1.64201887392625    0.91606952703922   -2.06610420859776
H           2.37935050210243    0.54856543607954   -2.55749574606404
O          -0.25301478950110   -0.74985810541302   -2.09585590622135
H           0.00326119773930   -1.45220025565509   -1.33935945775939
H          -1.11921711347482   -0.32125147047147   -1.80598957362451
H           0.48913867725807   -0.01367829317900   -2.06634842113231
O          -2.73268360863993    0.64693591492259    1.31542397867089
H          -2.26427989763180   -0.18835174472805    1.54206069262760
H          -2.69580778574311    0.42773847204019   -0.42372941209065
H          -2.54944160372395    1.22868989578496    2.05775439584457
N           2.67933215786521    1.20952804680292    0.33679435998671
H           1.97442230454347    1.06050585641353   -1.12049427565039
H           2.37139811120409    2.06901834110931    0.77445277604106
H           2.25129048073147    0.44690212676599    0.86708507950728
H           3.68268277558205    1.14548542315785    0.46190809308897
