    26
        -50.44574818  Gyration_radius:  2.41278444735 Dipole_moment: 4.177
 S           0.53028444204248    1.56927062742130   -0.64831198015728
O           1.05325676309809    1.94194551269444    0.64989723832667
O          -0.31441232203467    2.51580986349684   -1.31065122513953
O          -0.43968615638504    0.31494979368346   -0.27335962565906
O           1.54825101707477    0.96742824901781   -1.51596683618412
H           2.27139976431199   -0.05731289166459   -0.37124474729902
H          -1.01639064680091    0.18929391079773   -1.02939085036696
O          -0.29903065131898   -2.21943085246748   -1.87664616171891
H           0.32119954593264   -2.73622416440869   -2.39479965214846
O          -1.22462242094301   -1.15290937588551    2.22828292680306
H          -0.94480433413191   -1.36039082960830    3.12205600950760
O           2.28282097580888   -0.37691770964116    0.56000516032343
H           1.95627437449062    0.42638807597011    1.01104149042294
O           0.46751512036828   -2.10446685260893    0.61565277506385
H          -0.27527189985724   -1.70517240156881    1.23386168900637
H           0.10318514360059   -2.12399366695832   -0.32521866007631
H           1.25989845445751   -1.39509378713251    0.61616203944497
O          -0.40455391946535    0.22830725776565   -3.06364817472090
H          -0.88515567460426    1.04511501860552   -3.22109706804932
H          -0.41688149448206   -1.37707181169141   -2.35612643068342
H           0.44252957289818    0.52063401193432   -2.65673275408492
N          -1.21897633566508    1.48131645025411    2.25289787005695
H          -1.16673252551554    1.97618135047621    3.13541947921100
H          -2.00149524886924    1.86199919540381    1.73535463840909
H          -0.37933566804242    1.71307517481817    1.71701181501898
H          -1.24926590598444   -0.14273014868261    2.16555103467876
