    26
        -50.44574830  Gyration_radius:  2.41309708395 Dipole_moment: 4.197
 S           0.57116441575214    1.63437634520154    0.41294805792164
O           0.87324699146048    2.66562904376704   -0.53236939604918
O           1.67890960927341    1.07160972666924    1.15704145159662
O           0.08473554601819    0.36112369977104   -0.48014963826609
O          -0.59059856054149    1.92235441784180    1.26047246666676
H          -0.59206009948324    0.48896100102371    2.16795614045791
H          -0.45652998555355    0.72036065765559   -1.18560747286088
O          -0.16250383060083   -0.37990411119940    2.34207632630590
H           0.75845280998391   -0.15620970953856    2.10347732597700
O           0.91535660696962   -2.50704132513307   -0.81908097079432
H           1.35995707847321   -3.24042112931148   -0.38934409262965
O          -2.83231878226148   -0.32581234610246   -0.63675027635112
H          -3.63897761299629   -0.26321997601507   -0.12140248920628
O          -1.94320715045883    2.22814673010368   -0.93816952113134
H          -2.56437463647384    0.59251874661875   -0.83325454602959
H          -1.41514064189328    2.85826940588602   -1.43538646057719
H          -1.56321278821993    2.25774965398873   -0.03099844348422
O          -1.10128959472643   -1.87025464626705    0.55883013005588
H          -1.72873170156656   -1.27871063876726    0.03453331039643
H          -0.29251983041409   -2.10127153741509   -0.06185134584804
H          -0.70524049355388   -1.26861345837120    1.34151008387824
N           2.77947313839998   -0.64566702017430   -0.78824207633317
H           2.45313326116213   -0.00563364588867   -0.06033645861559
H           2.79307665599245   -0.11444943005396   -1.65003974570780
H           3.73618467095544   -0.89731285735669   -0.56955199547513
H           1.58301492430311   -1.74657758692398   -0.84631037392231
