    26
        -50.44574847  Gyration_radius:  2.41352604047 Dipole_moment: 4.218
 S           0.03194440339968    1.60424509321413    0.77458329059052
O           0.13897763803070    2.85242353726007    0.08256207568558
O           1.15757436660518    1.20009938543264    1.59138124063814
O           0.03562415513072    0.46475354574306   -0.39030331635774
O          -1.25553417556808    1.40256046718958    1.44747290594756
H          -0.95806861797649   -0.14008555425977    2.08521849169800
H          -0.49765646825658    0.81325493786731   -1.10709640850295
O          -0.32471391336920   -0.88812296452495    2.18101279820817
H           0.51727210673634   -0.39346424446909    2.14532973931843
O           1.67629267006150   -1.96390281935763   -1.06234299253025
H           2.25488400856311   -2.63497811590590   -0.69485149241356
O          -2.52569056626120   -0.89385444216720   -1.16325443732610
H          -3.37422278109783   -1.15084428428908   -0.79701488794107
O          -2.37019079430994    1.80604890324776   -0.86570111151532
H          -2.50888694043305    0.08256322527842   -1.14953394811654
H          -1.98576988126576    2.63891599632243   -1.15158468913531
H          -2.12398920036473    1.74053878775269    0.08475436430120
O          -0.58640841913523   -2.16158065679746    0.03790833909715
H          -0.47220032825225   -1.65604801647075    0.96660706598107
H          -1.28780362928739   -1.65276980417090   -0.47948117521491
H           0.32269450597157   -2.04534895493935   -0.46515114865563
N           2.92251842192202    0.25828075893204   -0.39382864628675
H           2.89241567368767    0.94305890421526   -1.13896075949807
H           2.10125406909099   -1.07134192462455   -0.84371165309722
H           3.87687318616239    0.21583021600726   -0.05648785817737
H           2.34281051017240    0.62976802348963    0.36247422330405
