    26
        -50.45160704  Gyration_radius:  2.55926441742 Dipole_moment: 9.059
 S           1.82036420621610   -1.89194427541093    0.18582859092146
O           2.36285714107654   -3.10438818452006   -0.32238427151884
O           0.33537471469881   -1.89509160102275    0.23812280756257
O           2.16968127690125   -0.71707588815741   -0.85146733292426
O           2.35026666338510   -1.38825230796872    1.43785557348558
H           2.15431657928756    0.16202060868969    1.34251127197213
H           1.88238824132292   -1.02620395823972   -1.70891988406084
O           1.84430779033763    1.11145651918138    1.38039407659526
H           2.59959182084990    1.62542480410181    1.66832049144674
O          -0.38225691983676   -0.78189790452062   -2.06446459001015
H          -0.21555269361012   -1.33684371465662   -1.27890492327648
O          -1.98614325028622    1.58075057130108    0.34360309445052
H          -2.24066690600854    2.47692315032003    0.56540440793762
O          -3.01741805976882   -0.03346995433590   -1.69349689309849
H          -2.79760746971284    0.51360585986605   -0.92146589201141
H          -3.33716697273529    0.56048502374966   -2.37430986104019
H          -1.35005605320265   -0.68003901423921   -2.09696858644704
O           0.23069405173017    1.57651368464327   -0.94669261377859
H           0.96326064164850    1.40583006392158   -0.33594430868771
H           0.12512698493732    0.75281691084158   -1.48029579062425
H          -1.13163354755531    1.65393564756779   -0.19888790153113
N          -0.49829374234324   -0.10573766557270    1.85059815435360
H          -0.18908689334326   -0.92006070644292    1.18152211490118
H           0.34567964255404    0.49268086748184    1.94139613762741
H          -1.24985539810353    0.45130854529729    1.39287448277040
H          -0.78817183842643   -0.48274707185117    2.74577166490845
