    26
        -50.45160703  Gyration_radius:  2.55925827182 Dipole_moment: 9.059
 S          -0.74590827377908   -1.93469108903962   -1.62108520205352
O          -1.44136262868345   -3.16189262944592   -1.80252606422989
O           0.06183580801673   -1.90176844723770   -0.37432428157677
O          -1.83371272572938   -0.77269106931595   -1.40957688925417
O           0.04794524495831   -1.43903209411154   -2.72841188647963
H           0.04225640724996    0.11512846485947   -2.54054591935006
H          -2.41670160646806   -1.07799149330646   -0.71658795915665
O           0.21924781029565    1.07193365132305   -2.31208236302373
H           0.07091513893337    1.56841230633050   -3.11768832027299
O           1.29025126623731    1.62952521614838    1.49703889884880
H           1.59707291097535    2.53245103186378    1.58471772137162
O          -1.56233173580531   -0.78047870489488    1.40351752899062
H          -0.96520384242956   -1.33620615271954    0.86735078256896
O          -0.95541411407423    1.56672419409215    0.25915751237211
H          -1.34594669993037    0.74377408145442    0.63941640749066
H           0.38477923834152    1.67993275401981    1.04159854348560
H          -0.80528502116332    1.38076879198461   -0.67981287340781
O           0.09751639422429    0.03332731579017    3.45886946355998
H           0.63835317902861    0.57774836042699    2.86326068880279
H          -0.33169265432136    0.63237723156762    4.07160995127485
H          -1.09474513335800   -0.65524024329148    2.24835779374286
N           1.84517551971070   -0.08659605524693   -0.52189352692876
H           1.47988421524728    0.49155930045460   -1.30353213316758
H           1.82994336182659    0.48665821781356    0.34746982690039
H           1.12523736964877   -0.91074696300282   -0.42782239585413
H           2.76789058114191   -0.45298599652715   -0.72647528464346
