    26
        -50.46770722  Gyration_radius:  2.51920025613 Dipole_moment: 3.825
 S           1.13740795799869   -1.11351150893071   -1.49450449301340
O          -0.26517538440459   -1.41184215108954   -1.72481268203597
O           1.47565384897626   -1.11060204252822   -0.07898993318645
O           1.57412011448887    0.10199524858664   -2.15685770253565
O           1.94391310001052   -2.30480396552662   -2.15081932819912
H           2.84889156585163   -2.03048833647171   -2.04228250751490
H           0.91400356279489    1.44687867795612   -1.62817830237839
O           0.43807311270024    2.22877123110540   -1.23692379683300
H           0.70381475663903    2.99025216482200   -1.75459551846923
O          -0.34305951750121    1.08221311304237    3.01578575286842
H           0.03855403053925    0.58424057270222    3.73996608362678
O          -2.11740714942987   -0.24357770777291    1.56378931646547
H          -1.55016561803990    0.28320994728683    2.17743671646565
O           1.54808583327584    1.27697602307919    1.16259632698252
H           1.62973055891856    0.38183951319793    0.78373533028710
H           0.38916872617469    1.21972338948407    2.36657012457043
H           1.22865130051992    1.83237591477469    0.43830511810052
O          -0.65518765339970   -2.37177871618056    0.88812261882763
H          -1.66119341734487   -1.11228584108440    1.46648343090147
H          -0.97897006933537   -2.65489332508517    0.02817663365602
H           0.20530316384804   -1.95287652878265    0.68977532856570
N          -1.71553973598358    0.59613298411538   -0.82326497974084
H          -1.21298474650843   -0.22572219326586   -1.25353268866483
H          -1.93388630802501    0.31446806371159    0.22592386161330
H          -1.06912910077649    1.40099346000573   -0.87309296857358
H          -2.57267294199856    0.79231201282992   -1.32881172176958
