    26
        -50.46770715  Gyration_radius:  2.51903413008 Dipole_moment: 3.817
 S           1.81318756060240    1.17087512013803   -0.32607316600504
O           0.81631108189683    2.08068698548011    0.21033595076241
O           1.25765504898109    0.27008772373144   -1.32503737369770
O           2.53764552408317    0.45209233215330    0.70607172777676
O           2.86829434493166    2.08113807639984   -1.07346996385575
H           3.53226061147663    1.45474027422250   -1.34344826104790
H           1.67309685183626   -0.56283387182447    1.56949971409832
O          -2.05996001674225   -2.28534280812366   -0.95591693675377
H          -2.16614330422493   -2.45867806772814   -1.89225223230296
O          -2.62810926895089    0.19176475627054   -0.21015194178561
H          -2.53561567268120   -0.75674625836501   -0.47005424763051
O           1.04677904554431   -1.16099705484106    2.06043323204916
H           1.55408567198334   -1.55240315151047    2.77310716910051
O          -1.01559737080815    1.54295504472910   -1.85248241108332
H          -0.76978329809502    2.34533368363584   -1.38316499478224
H          -0.20892780451043    0.99233552795085   -1.81687978024199
H          -2.18835065444731    0.70409663933420   -0.92883139406351
O           0.55485866678978   -2.19603196615786   -0.50472132384480
H           0.71180825719036   -2.08865875359388    0.44341927068895
H           0.85594739260632   -1.36212180534832   -0.91133113026107
H          -1.08862173933880   -2.33366836962012   -0.78058522931131
N          -0.91698023529685    0.69181416169346    1.63003329917632
H          -0.37576274620975   -0.13763972089960    1.92542293306552
H          -1.70426746297939    0.42401375708017    0.89767418770783
H          -1.31824459185451    1.16326046227292    2.43344379942957
H          -0.24556587187273    1.32992725289654    1.12495910282623
