    26
        -50.46770718  Gyration_radius:  2.51902809603 Dipole_moment: 3.823
 S          -0.07298611938368   -1.30801265697203   -1.74572722563296
O           1.32587851901451   -0.99320269280570   -1.51488579535646
O          -0.93360946021643   -0.14523256589224   -1.58690302583367
O          -0.53724440624355   -2.43549095409518   -0.95813001428826
O          -0.17181113594624   -1.74111547078924   -3.26335944901836
H          -1.08235927832441   -2.00555552940791   -3.34718618057427
H          -0.56016466010877   -2.21097503465774    0.61430949463381
O          -0.52650347974665   -1.97783247386871    1.58153428271693
H          -0.76709732896520   -2.77422088244143    2.05729835879050
O          -1.21783741596042    2.43887852653020    1.71619719419666
H          -1.69668429719935    3.13634337893943    1.26646268411672
O           1.28832042788404    2.11616083980482    0.92195622273498
H           0.39796375850994    2.31884501618709    1.29858484029177
O           0.89704309826047    1.77924561259766   -1.69677772083937
H           0.10723068410401    1.20357463388736   -1.69479254742946
H           1.17978645629956    2.18041580277186   -0.05595413529050
H           1.60394714307728    1.20241033220004   -2.00005891954063
O          -2.18044067769692    0.14802730932050    0.78104816104436
H          -1.84248009481164    0.08252982751686   -0.13160541372996
H          -1.63547553493835    1.59229047857106    1.42401749936188
H          -1.77213536511335   -0.58759410004094    1.25773876920951
N           1.65131364517787   -0.41763009814769    1.03684591917041
H           1.50294868669942    0.67948992273740    1.08115538853819
H           2.54305754544751   -0.67674382703327    1.44476634103069
H           0.87721581736184   -0.92400058211459    1.49793570221649
H           1.62212347281077   -0.68060480284765    0.01552957946924
