    26
        -50.46770642  Gyration_radius:  2.51902778745 Dipole_moment: 3.793
 S          -0.31147801382595    1.56739807270634    1.48743793740695
O           0.10339576921699    1.84228473096215    0.11971474702381
O           0.50769566405200    0.54670285572961    2.11701022365576
O          -1.73269369285774    1.28610666413274    1.57468953114974
O          -0.05639318716650    2.89254734516452    2.31183029696671
H          -0.64730924634378    3.51372582581138    1.89835291760276
H          -2.23111438967076    0.00404950467982    0.78016876175211
O           0.57491265344153   -0.89156375639541   -3.04273120808608
H           1.06976182699539   -0.30654496006105   -3.61796383187857
O          -2.44097529710327   -0.82048769067739    0.26336182120956
H          -3.36990428454482   -1.00164178490557    0.41418978017339
O           1.86208572042058   -1.66481359544931   -0.86081424545073
H           1.43309716890070   -1.47407783599396   -1.72988595931999
O          -1.26011846092494    0.60958075046853   -1.84745586957121
H          -1.83069206644153    0.04715368035588   -1.30594508724432
H          -0.15541873831355   -0.34433827665767   -2.66380977178900
H          -0.76659487719228    1.16233041037809   -1.21315360487854
O           2.51134160004320    0.71657952313404    0.15469299865992
H           2.26875914773240   -0.81253805035978   -0.57697137782912
H           1.68803486695003    1.21858660628582   -0.00445542043757
H           2.53122443894931    0.60066949704408    1.10901923014340
N           0.03654071303303   -1.76165462460439    0.93439082713459
H           0.79180943524281   -1.80124121295305    0.12459262291294
H          -0.91892099127841   -1.64844150818188    0.55696312347063
H           0.09509643678683   -2.58679503353567    1.52129860829038
H           0.24785778387188   -0.89357712709773    1.49547295893614
