    26
        -50.45526448  Gyration_radius:  2.81513102339 Dipole_moment: 3.536
 S          -1.47010265001107    0.96245388177706    2.29181130996878
O          -0.51989322347470    1.99068366998577    1.86493147637136
O          -0.80679063951661   -0.24893662272097    2.73052527517230
O          -2.49582495674053    0.74633984120954    1.28900838564192
O          -2.20704850748129    1.53990777809791    3.57234698585914
H          -1.58796611589123    1.31719447861261    4.26031247627228
H          -2.12658020048725    0.40898086774225   -0.19290296200677
O           2.18742899529349    0.37874475638431   -0.62769909957649
H           1.69055550030992   -0.21274740665714   -0.02838494291019
O           1.23641794465051   -3.18374574382727   -0.87931092337377
H           1.92024346455920   -3.60090317634983   -0.35343126145863
O          -1.77293070853067    0.18708935631652   -1.10090323516617
H          -2.51704193315599   -0.16431388849847   -1.59178556343815
O           0.19363697934305   -1.08374498809562    0.47017317672526
H          -0.13207872218659   -0.86842129548756    1.37448003536654
H           0.79710651569695   -2.53513031469189   -0.29306062158117
H          -0.50830305626270   -0.80190103135363   -0.13620023702121
O           1.96391772656496   -1.33032472112255   -2.70880877641016
H           1.75905632642020   -2.09461435825951   -2.12784301902749
H           1.25999700044845   -1.29798412033137   -3.35755821526284
H           2.25901426810716   -0.12738254778973   -1.46296942805059
N           0.17647538240453    2.02885408518289   -0.62383941454429
H           0.27855879273887    2.96024101713106   -1.00969820762495
H          -0.08981197337803    2.07598396926245    0.41774071454592
H          -0.57534126615552    1.49770091951911   -1.08926675626229
H           1.08730502675385    1.45597559393764   -0.68766717224795
