    26
        -50.45526443  Gyration_radius:  2.81564611203 Dipole_moment: 3.548
 S          -0.62678397406066    2.74695886686573   -0.63560572861997
O          -0.90151282110572    2.50947222117958    0.78231204120935
O          -1.46557576020765    1.94020942798133   -1.49897002025356
O           0.79172323981373    2.64162045264632   -0.92096414619451
O          -1.03283560310105    4.25329306948433   -0.92199042648644
H          -1.97091500442756    4.17075191190523   -1.06121728076400
H           1.60772019114502    1.36602438823624   -0.52921854886422
O          -0.37529941578427   -3.01477580930826   -1.79541722013532
H          -1.24886700556657   -3.33890237261529   -2.01915544787661
O           2.02117843271700    0.50175736892734   -0.24496468222516
H           2.86879558167878    0.45958838280218   -0.68976463025989
O          -1.00358986404121   -1.44502230581110    1.48941603032602
H          -1.13716832191713   -1.12936977808901    0.57372908584394
O           0.57572276671267   -3.48732310226238    0.69111732922229
H           1.53048666192031   -3.44026608712144    0.63143942583611
H          -0.46886227477524   -2.25926441960275    1.38926180509503
H           0.24632363638309   -3.44996416131363   -0.23290894904725
O          -0.53473585489129   -0.44054137263656   -0.97857260691634
H           0.40145469538811   -0.22732757378309   -0.84534305875344
H          -0.96417342731221    0.40260930860842   -1.25267478196894
H          -0.46855865203306   -2.05114689952804   -1.65352593236915
N           0.45026018862708    0.65680075784901    1.97458288486297
H          -0.15320031441861   -0.23472558948219    1.92105238557603
H           1.27128127832913    0.53105358993988    1.36276870221543
H          -0.12911794022962    1.45230513069931    1.53954177145746
H           0.71624955135167    0.88618458433728    2.92507198902468
