    26
        -50.45526441  Gyration_radius:  2.81455763658 Dipole_moment: 3.540
 S          -1.42397161904256    2.33786365454247   -0.91769704935209
O          -1.95297216656235    2.05243900502611    0.40089214475685
O          -1.64841117319451    1.23608235799646   -1.85475226219170
O          -0.03484373917176    2.75605081121355   -0.92137906598718
O          -2.26522576694445    3.56661207122245   -1.46440832563228
H          -3.12712252631481    3.37751431146736   -1.10717380187669
H           1.12291182760076    1.73268255533277   -0.67967605821898
O          -0.54663313125346   -2.23767770501708   -0.16888244114016
H          -0.75145188467683   -1.47666052950982    0.40965135950036
O           0.61796370339489   -1.30269566753886    3.21471475399665
H          -0.10466328003267   -1.61429651974509    3.76137373527864
O           1.77335820082871    0.99550147940506   -0.50005730389672
H           2.60153353180595    1.42550910965123   -0.28243832915482
O           1.60208236405510   -2.94781799731712    1.30779858125949
H           2.49737218477350   -2.65639702769188    1.13230507964874
H           1.30125891663232   -2.43651067742961    2.08989626814982
H           0.21478859774494   -2.67401092773900    0.26565182146628
O          -0.35353063370201    0.12605422133606    1.13380055058108
H           0.46825652491763    0.42452710538776    0.71487678324951
H           0.22576020382068   -0.67741866790571    2.57222822670300
H          -1.01276810924733    0.83854515291556    0.96651943999683
N           0.17733180610253   -0.58392819731564   -2.04171033478227
H           1.01326706805772   -0.12321718923133   -1.65086208217158
H          -0.60730588922162    0.15226062978285   -2.02304252503974
H           0.33324249299286   -0.91688813572229   -2.98596736651801
H          -0.12022747336569   -1.37412321309623   -1.37166178867849
