    26
        -50.45526451  Gyration_radius:  2.81526300361 Dipole_moment: 3.550
 S           1.39154341872055    1.29634817200769    2.17320439600611
O           0.65149353254965    2.34421409115080    1.49914196956294
O           2.37002598599926    0.65584125286984    1.29309653370134
O           0.55589496059959    0.31214211789318    2.83450458534421
O           2.22376884537626    2.01927656738816    3.31386609731280
H           2.45341018082290    2.83855069182460    2.88684563244970
H          -0.22993506750270   -0.76846425676653    2.02074855296451
O          -0.69417586519204   -1.39815779187928    1.39907591154116
H          -1.37817045452642   -1.82167722535029    1.91958558419983
O           0.62336802628246   -0.28363087339747   -2.20158319249585
H           0.21045327544606    0.40278103335148   -1.64088493586650
O          -2.87149658358663    0.87060986855074   -1.85399163473721
H          -2.87248595730564    1.65039491941157   -2.41092422073547
O          -0.73276716191727    0.92702721508504   -0.19816292306756
H          -0.88962133084171    0.13358255366098    0.33619068023227
H          -2.17320261974585    1.01344417403575   -1.18361268685268
H          -0.26631364957304    1.56066966342766    0.39453887617444
O          -1.76030432089447   -1.40073630529008   -2.81218704467709
H          -2.26258014726192   -0.59712887860735   -2.55610684938522
H          -0.13425608788499   -0.77913012117702   -2.57497536448709
H          -2.15775645961825   -2.12437578177776   -2.32668203513273
N           1.60131615182686   -1.40328471933487   -0.06702953146251
H           1.28895295102202   -1.02705778932518   -1.02769003228743
H           2.30237777450149   -2.13055411398379   -0.14692249964227
H           1.98533280775270   -0.56434932029925    0.48666391857040
H           0.76512781896360   -1.72633515678982    0.44329019210117
