    26
        -50.44204344  Gyration_radius:  2.56036841518 Dipole_moment: 3.825
 S           1.75795929761693    1.54029538287439   -0.40469667468094
O           1.63572030944566    0.40266318398083    0.51784261318646
O           2.96389071078815    2.29013649731356   -0.27052249979318
O           0.59290468310510    2.55815248783131    0.08539250564058
O           1.38801747299775    1.13599492147798   -1.74464323535389
H          -0.01072284344066    0.47942328520326   -2.14006519950022
H           1.17352740705276    3.28484398011167    0.27924485394543
O           0.12228108685382   -2.77808463929034    1.49571623785968
H           0.87320856003792   -3.28104719753826    1.81475842001551
O          -0.90373450461127    0.09699342528486   -2.35136463430082
H          -1.08144578358317    0.34420667384800   -3.26026693064225
O          -2.27608809694152    0.18029613055178    1.61296797971022
H          -2.71258426184259   -0.61404252019764    1.29853783985087
O          -1.99808896525612    1.68511939610057   -0.47663752772029
H          -2.24552299514264    0.81466191499512    0.83724842910113
H          -1.19680038047307    2.18828490993730   -0.27904664290146
H          -1.74203215996789    1.07101780539312   -1.19764733844935
O           0.08746309098472   -0.38748430155550    2.29137728881132
H           0.73298866072651    0.03929703748613    1.59800939238037
H          -0.88130700832400   -0.08774126506244    2.06142875842177
H           0.10657526615359   -1.40700552666338    2.06125418518430
N           0.74007586055958   -1.91400657864833   -0.86790606127473
H          -0.04477964571915   -1.61528105353323   -1.43865295573092
H           1.21989265301465   -1.06098268584246   -0.57421038588134
H           0.32570804635859   -2.53802126127974    0.51970335669590
H           1.37289354958412   -2.42769002266163   -1.46782177452892
