    26
        -50.45683654  Gyration_radius:  2.52337242629 Dipole_moment: 8.076
 S           1.30882178800796    1.41474226108759    1.20223346805626
O           1.87344454605866    0.11359897718755    1.58303549754268
O          -0.12204822090482    1.36285794116389    1.06709405094674
O           1.98833410879593    1.95166842558847    0.03304851071749
O           1.63305272754917    2.39541270364151    2.39913761027563
H           2.58132975190180    2.46168494619106    2.35249148105521
H           1.45036187430559    1.18991555715485   -1.23313364542251
O          -1.10747839217477   -2.30738980372145   -0.12068597842935
H          -1.47209384583123   -3.15988550450417    0.11836223657769
O           1.17751653248435    0.59021974052260   -1.98321129527851
H           1.50484795846795    1.00109037155761   -2.78533591579706
O          -2.78482419786189    1.26313534446971   -0.01628159442056
H          -1.98562060453449    1.69950984540969    0.30368350084440
O          -1.54700527648905   -0.19185996006544   -2.00353400379473
H          -0.65444632538517    0.18229366911331   -2.01350485015221
H          -1.49297488673468   -1.01322051832106   -1.49812405524485
H          -2.51938876277696    0.83418430722624   -0.85096569774454
O          -1.84187292918143   -0.60896023294784    1.63538738744929
H          -1.08595883035398    0.00502454416365    1.68999968673551
H          -2.50322004195829   -0.06038892733204    1.15583532797482
H          -1.42726191710155   -1.65515403383210    0.59766840372885
N           1.41638119919182   -1.52104485570441   -0.33686439581294
H           1.40645220445601   -0.87027538509545   -1.14780912423477
H           2.12484405572188   -2.23860516457725   -0.44490485755345
H           1.62519230473924   -0.89894064629852    0.52611772061287
H           0.45361517937779   -1.93961361227147   -0.22973948863352
