    26
        -50.44204337  Gyration_radius:  2.5604074992 Dipole_moment: 3.825
 S           0.41864752605568    2.32895055303047    0.17105634888462
O          -0.32710287977281    1.39368848913621    1.02516450854481
O           0.34828489148110    3.69408402242445    0.57845576096738
O          -0.38543320685963    2.28595627929183   -1.23782412525819
O           1.73630835147107    1.80084681547498   -0.11263266254158
H           2.01835892738889    0.37648550688635   -0.77232494354006
H          -0.60143388781516    3.21104831382991   -1.25510326954213
O          -1.02466478298644   -1.98561591160267    2.23129306906617
H          -1.15050532918592   -1.85318313480114    3.17215079281856
O           2.15270748497735   -0.50611269084170   -1.20974467693947
H           2.97768847447837   -0.43164604196595   -1.69208597228235
O          -1.93550837728207   -1.42687414387640   -1.42524238755565
H          -1.57035164667952   -2.30248436166650   -1.28260394453725
O          -2.16850384748093   -0.25685843462147    0.79867227930363
H          -2.13031237488088   -0.68743952775870   -0.14700318486506
H          -1.78701417832837   -0.99257633983571    1.43572669618922
H          -1.46050253910555    0.50264436698051    0.83880531010506
O          -0.08029146461432   -0.10069269071624   -2.65320467342985
H          -1.26900119176177   -0.92794316533272   -1.98376748633128
H          -0.23317224950485    0.80882476252987   -2.36395703816394
H           0.75500949185163   -0.37038977362517   -2.21493827192055
N           1.24626533779669   -0.90132208009124    1.61268789203935
H           2.00281701484701   -0.84516951458352    2.28253208313819
H           0.90019243721786    0.04792534948050    1.45993413539453
H           1.64450006111433   -1.20311471448795    0.72876131409686
H          -0.07698201235630   -1.65903194321906    2.01519246639658
