    26
        -50.45447826  Gyration_radius:  2.54520476551 Dipole_moment: 4.578
 S           2.12828437091482    1.17043221831668   -0.42942206336898
O           2.64618916071798    1.19509208035676    0.90907086886286
O           0.89095364936842    1.96899354349135   -0.53582607384528
O           1.91812599019882   -0.16788640760858   -0.95606962775640
O           3.18194247176849    1.86701213535240   -1.38939095007713
H           2.91104665213387    1.61420862125877   -2.26899919900168
H           1.47782445080990   -0.94888541429586    0.36657395588233
O          -1.00913397107253   -1.94180073834058   -2.06688065165033
H          -1.66295715363274   -2.13028460213264   -2.74113139971003
O           1.23239299330024   -1.20688122690416    1.29796154335312
H           2.06807982414712   -1.19508368893940    1.77103080752451
O          -2.47988846109786    0.12694054742178    0.85973082651686
H          -3.36263696036447    0.00181005862892    1.20846560713258
O          -1.32550450758412   -2.16647033684633    0.57207466237345
H          -1.22061850851806   -2.23737743675973   -0.40371243555604
H          -0.42398812547059   -2.07155143454005    0.90694813293031
H          -2.08817893771162   -0.79620521586912    0.74193394030034
O          -1.20848165233075    0.70917973525693   -1.68829161368820
H          -0.93113993426004   -0.96218805064007   -2.02777024758343
H          -1.79054052338017    0.68451888669776   -0.91772665014577
H          -0.40524814628044    1.17980455837332   -1.40087450995302
N          -0.12542364170487    1.07481059792398    1.67018483769035
H           0.25070792294420    1.59524788584511    0.81431197207415
H           0.42747427762865    0.17414872873789    1.68445778636459
H           0.03484695354473    1.61729385744011    2.51179023953270
H          -1.13412819407280    0.84512110776261    1.51156025179302
