    26
        -50.46021516  Gyration_radius:  2.60102702479 Dipole_moment: 5.809
 S           1.70604394975008    0.94009290310704   -1.04337323229158
O           0.51200681779687    0.25120446500957   -1.47206480392070
O           2.54741690745045    0.11129022242923   -0.18094674967524
O           1.43552573023825    2.22736379605930   -0.42146668968453
O           2.55413111508710    1.23984431129670   -2.34291421815674
H           3.25591455284007    1.78724822822010   -2.00561966154582
H           0.34161072510576    2.11825752301317    0.71485004310603
O          -0.12279464399850   -2.64856241771673    1.40726824854743
H           0.45738879574965   -3.40718577875923    1.32659103700101
O          -0.29872709056621    1.93509661295634    1.45740893415130
H          -0.36584557545536    2.75066680299925    1.95681974541648
O          -3.20645357203660   -0.90583005341782   -1.02556181834657
H          -3.64482869396291   -0.90830276329551   -1.87747601987524
O          -1.85333935590833    1.39509253073140   -0.87111969109740
H          -1.01617777395909    1.05746858347128   -1.24053180315817
H          -2.80858392058882   -0.00946564841789   -0.92899976613595
H          -1.63743980288711    1.63812024244751    0.03768358095871
O          -0.78970157990409   -2.10947117557858   -1.01600173351014
H          -0.45983235193545   -2.47291849610327    0.47047923869870
H          -1.71983985451207   -1.79419155228956   -1.01412638494828
H          -0.25956228975313   -1.33540081571919   -1.27225770510716
N           1.07416222069718   -0.37213754104951    1.89111876734208
H           1.73640428633487   -0.22309092165483    1.06172453439949
H           1.59613578827824   -0.38792931209045    2.76125757293017
H           0.40709796050803    0.42487786478419    1.88364839483098
H           0.55928764561122   -1.30213762040036    1.74361017011280
