    26
        -50.45708376  Gyration_radius:  2.51533422807 Dipole_moment: 8.101
 S           1.61494035722578   -1.20705667056302   -1.01211557642501
O           0.18874904830578   -1.11005973533744   -1.17752519568170
O           1.99388847337196   -1.49159085055660    0.37643865730472
O           2.33303321844774   -0.04675105833379   -1.51905865164534
O           2.10364474709175   -2.44706255401495   -1.86134672596952
H           3.04832099743054   -2.40866296999374   -1.75167329636588
H           1.61064557219702    1.22409674651823   -0.95223020415528
O          -1.57151358096431    0.38028026124703    1.98436807143683
H          -2.18435216506906    0.74891086704585    2.62105330538882
O           1.20277273692999    1.99320024771187   -0.46117712862864
H           1.62748961920794    2.78119991835972   -0.80485719352920
O          -2.30070695673939   -0.16375520345079   -1.82651537788691
H          -1.38466967798717   -0.44738735606626   -1.96301102213756
O          -1.61040078933844    1.77978934304283   -0.16937165067479
H          -0.68197006945937    1.91496737981232   -0.40818434200889
H          -1.96662393577872    1.15227573264773   -0.84955828131979
H          -1.66556884930848    0.93631476204523    1.14232533516797
O          -2.00261919700551   -1.91392865093612    0.31854395526412
H          -1.16402790129636   -1.85330313064195   -0.16428888590037
H          -1.93054525236994   -1.27207528540909    1.03608312353507
H          -2.64260695680405   -0.82035118210298   -1.19711485803933
N           1.07992376073754    0.46381792144322    1.75623895458521
H           1.17051806447490    1.23067803327689    1.05778470316209
H           1.44862750545485   -0.42296872931766    1.25269457716918
H           1.62365212230033    0.65182822222944    2.59168923808865
H           0.05939912893132    0.34759393135598    1.98080850926529
