    26
        -50.45966309  Gyration_radius:  2.59296247877 Dipole_moment: 3.945
 S           1.27566518630940    1.45036603604611    1.47460681342095
O           0.86343941650787    1.98450057903568    0.19717063689240
O           1.94845226521292    0.16246525241336    1.31256507278596
O           0.22453880015545    1.39777150831968    2.47296618597049
O           2.36847343532255    2.45128537766459    2.05301429653099
H           2.43845539160455    2.17125850480549    2.96032533836895
H          -0.96298563954936    0.42713735828354    2.00527645311511
O          -1.74014211050599   -0.08905656046530    1.66936418114865
H          -2.27493138595508   -0.28861130986548    2.43935447599494
O           0.62367519253331   -3.12900674162181   -0.97675975251973
H           0.42948953021028   -3.72402654110475   -1.70208328029334
O          -0.86131544759686    0.30616475996346   -2.14446218943979
H          -0.88863252711464    0.78082013382680   -2.97581685144134
O          -1.72728785775627    1.87644439020269   -0.28820141399917
H          -2.00559913190966    1.27297713726279    0.41883937578290
H          -0.81092480777564    2.13206236379305   -0.05072810700589
H          -1.24960644765280    0.93834770169154   -1.46182554026351
O          -1.61441479256027   -1.83830692714382   -0.46249111684126
H          -1.65014186848241   -1.32342734916085    0.36211998033096
H          -1.56127903735228   -1.17993584477192   -1.16866343623985
H          -0.25023467864276   -2.77956745472820   -0.66610644053458
N           1.49395743136967   -0.59876380290099   -1.11102883812947
H           1.30562802337703   -1.63203465748169   -1.09466260663287
H           0.64089068082157   -0.11549688937230   -1.47649256730936
H           1.68431977460909   -0.27693475913246   -0.10215211597654
H           2.30051061482971   -0.37643228556406   -1.68412854371532
