    26
        -50.45150337  Gyration_radius:  2.64310287983 Dipole_moment: 6.599
 S           1.50889484287343    1.30240638531272    1.60254814901956
O           0.96350982541066    2.19633115677552    0.62054073072731
O           2.58643135182502    0.46615941798338    1.05737955693946
O           0.51105815704494    0.48080090150786    2.28565412141328
O           2.16397181673411    2.16378082901485    2.76609651532209
H           1.68956438468551    1.82798544659726    3.51925400120125
H          -0.09169089660888   -0.85593074110949    1.73550122556778
O          -0.35308330589360   -1.76010668228739    1.39171659555172
H          -0.62177241537536   -2.26206258888283    2.16227258187673
O           0.06793330959059   -0.59392950849386   -2.33838369934849
H          -0.05604335800125   -0.88056920718389   -3.24358561370269
O          -3.00113268465388    1.02129178129941   -0.52451348360051
H          -3.70119916576673    1.40153173715389   -1.05593305873318
O          -0.72468473446424    2.01110780021673   -1.44606404603137
H          -0.14257331161134    2.21508934431677   -0.68996154199769
H          -0.31888732083872    1.24635642793688   -1.87630055911746
H          -2.16978297157972    1.48761782398265   -0.79564129241457
O          -1.91196076891721   -1.37809362119162   -0.88607149133352
H          -1.49785577041252   -1.56163959860033   -0.02768541699176
H          -2.43421532568761   -0.55547429734778   -0.74057891879880
H          -0.74906591888434   -0.89949344950338   -1.82649105062859
N           1.66800899514431   -1.43810450670686   -0.35703282990398
H           1.19210005654042   -1.07910168392087   -1.21680575893000
H           2.11282827244300   -0.60252695066465    0.19330154049905
H           0.93823310638678   -1.82162146851081    0.27607717393857
H           2.37141384001697   -2.13180473769450   -0.58529342052734
