    26
        -50.45150363  Gyration_radius:  2.64099497066 Dipole_moment: 6.595
 S           1.27307248907006    1.72705235412593    1.38533454652413
O           0.92237765536056    2.30559088630389    0.11916498925431
O           2.39882219631632    0.78988560470518    1.27720699120666
O           0.15267278331599    1.11138770951266    2.09459103951231
O           1.75661107031428    2.88726443905427    2.35773846656297
H           1.15052220361941    2.77119856753047    3.08183251195129
H          -0.38516043500909   -0.34129942746956    1.86271912071794
O          -0.61037503416621   -1.31161491897636    1.75457578137841
H          -1.01127099420059   -1.57833927497490    2.58287235622187
O           0.41563578197499   -1.22396830176009   -2.03785312370617
H           0.42438592596520   -1.75208154313216   -2.83652652168101
O          -2.85036577276809    0.78326711553961   -1.24236741388198
H          -3.45157346483505    0.98941780505933   -1.95877290638316
O          -0.43447242108567    1.51224160975019   -2.04432586951852
H           0.03080906878668    1.93195487598460   -1.29618954296969
H           0.01219625497127    0.66474387000914   -2.17422926591633
H          -1.97505809587860    1.16833393646508   -1.50249782325760
O          -1.78660938348229   -1.60497490777980   -0.75356826278041
H          -1.51510075906243   -1.53738719027456    0.17581557435068
H          -2.30114962063770   -0.78228916077050   -0.92396139842741
H          -0.47911171929899   -1.38830313275638   -1.59566635791900
N           1.66627114233211   -1.45212472785123    0.32503770997098
H           1.33907566197477   -1.35705787623709   -0.66407104372670
H           2.03964546989730   -0.48697863218335    0.68325549408489
H           0.83799455214767   -1.65902360392655    0.91785511210652
H           2.38015546436047   -2.16689608594856    0.41202985632009
