    26
        -50.45490181  Gyration_radius:  2.54556791953 Dipole_moment: 5.614
 S           1.37731070901466    0.35132065266146    1.88024979190478
O           2.47850497358701    0.32087319707523    0.90763125577622
O           1.20965049151962   -0.89521411627851    2.58144505023226
O           0.17572067214193    0.88076020121180    1.27088993868404
O           1.81780260906135    1.41494813486229    2.98576651617623
H           2.22288381993018    0.85910390016112    3.64410596152295
H          -0.29138229841833    1.75163457533901    0.03651297271622
O          -2.91554433426733   -0.81638820596106    0.72006156664970
H          -3.61466519991484   -1.44945604982009    0.55023618695217
O          -0.44511345199350    2.23968754146598   -0.81768955539009
H          -0.71669566396711    3.12417179725433   -0.56988855003450
O           0.09883058602561   -1.58841887564624   -1.62596014490030
H           0.35036136679460   -2.44643884634507   -1.96933795122645
O          -0.47219455248851   -2.00513063199390    0.82421042324968
H           0.13226287358553   -1.64816837639435    1.50205905357246
H          -1.32947553913628   -1.54753345600096    0.95963001897115
H          -0.10888468716802   -1.74377337131579   -0.63922011268481
O          -2.12076121599923    0.16519509682385   -1.67552754708102
H          -1.43401112439665   -0.50204822264952   -1.81657012272276
H          -2.72888224554849   -0.37537543309601   -0.13699683873921
H          -1.64999059644691    0.97733935852385   -1.43263298362450
N           1.60586713018070    0.59749849123011   -1.46910156421313
H           1.07332020496169   -0.29466125391601   -1.63754311139718
H           2.32695687847294    0.74718019959796   -2.16555686083067
H           0.92647442228665    1.37807446944762   -1.43984251988288
H           2.03165417219010    0.50481918376477   -0.46693085368040
