    26
        -50.45447828  Gyration_radius:  2.54379696696 Dipole_moment: 4.573
 S           0.72025752837307    1.67683265651656    1.65576885134397
O           1.50280447077627    1.59675184449690    0.40628058916089
O           1.25050469153752    0.79418597107918    2.65580731860358
O          -0.69400236222915    1.47938541565676    1.38486253943553
O           0.87185559260387    3.16938477019617    2.17149046900417
H           0.30575403867226    3.68226868475811    1.59935572086842
H          -0.82441553603514   -0.10130501182043    1.58528335048999
O          -0.65404833126901   -1.06863263351365    1.75643446938663
H          -0.50974458504511   -1.11526167540922    2.70482394052963
O           0.66156450907571   -1.64006696334387   -1.94324582040889
H           0.76046500083576   -2.32729023773587   -2.60236615954081
O          -2.53885254780763    0.50529213083471   -1.52994350059719
H          -2.93960072362311    0.72883228872044   -2.37080130150012
O           0.03861692608686    1.19656207071638   -1.83401257875942
H          -1.63991273487607    0.90390448184247   -1.54072098190007
H           0.52478539923870    1.47086085675632   -1.03548657017659
H           0.37852681048919    0.32190441721989   -2.06335224797496
O          -1.62755428819584   -1.88334137657909   -0.76998755279982
H          -2.10328537949669   -1.06816000993542   -1.04810066913532
H          -0.25493371055004   -1.76523630378987   -1.53855535529285
H          -1.47286181354405   -1.76290149734104    0.17624671900132
N           1.67538091092732   -0.98569527938032    0.43250277857736
H           1.47923309297351   -1.34897931890211   -0.52919495363706
H           1.76757195566636    0.07936216863545    0.38880744475973
H           0.82024420434891   -1.14382790276106    1.03350228811193
H           2.50164687104713   -1.39482953691841    0.85460119244278
