    26
        -50.45447811  Gyration_radius:  2.54598722517 Dipole_moment: 4.576
 S           1.27761109312734    0.25588839556534   -2.09598196541001
O           0.33213322485775    1.33552248080460   -1.74886007832633
O           0.63486013459138   -0.76324599371915   -2.87610759888766
O           1.94066012732578   -0.24428214379522   -0.90320310678319
O           2.40588884842650    0.93176103175025   -2.98311869686651
H           2.94486874142909    1.41491028940157   -2.36101887118627
H           0.96059860483281   -1.43645406474074   -0.48863555244455
O           0.22050975461296   -2.10244658599698   -0.43482654008791
H           0.40143248525553   -2.71104090931917   -1.15530743087785
O          -2.20932696319491    0.48793816054559    1.33841033500004
H          -2.97382759861959    0.51750971182772    1.91388607134093
O           1.44659592550729    0.36320402361672    2.61617624092103
H           1.57795887534800    0.90618518716752    3.39431193267932
O          -0.56743864801279   -1.32698133921700    2.16663074731300
H          -1.59276656739113   -0.21348596755848    1.72217426292722
H          -0.27035536346367   -1.81452117537123    1.38691879177748
H           0.21727552326811   -0.80205004126206    2.44370989944462
O           0.22839888441894    2.00110502481523    0.87175032627443
H           0.38112629222422    1.83521129416975   -0.07616042305366
H          -0.67967178337901    1.72171190504615    1.04634233200635
H           1.16307904740875    0.97482816935654    1.90010499546360
N          -1.60489116122117   -0.27087628616484   -1.14316427687124
H          -2.27348807312479   -0.49181369432052   -1.87284744945467
H          -0.91891367591235    0.47742382028292   -1.48102049166957
H          -2.05338855961450    0.05545714075226   -0.25561875356603
H          -0.98892916871458   -1.10145844363469   -0.92454470964172
