    26
        -50.46306747  Gyration_radius:  2.5445264145 Dipole_moment: 3.901
 S          -2.05846576627572    0.89592951592629    0.14855751866610
O          -1.17952424213980    0.59453918312691   -0.96427558935118
O          -1.38889792081332    1.70993780688413    1.16241772551881
O          -2.67137590984126   -0.28158118545069    0.72973674636112
O          -3.23361208437335    1.77698863741562   -0.43672786834972
H          -3.87080366444247    1.73112308789430    0.26816841358150
H          -1.68266482168184   -1.50570461683818    1.31157579898818
O           1.66751580030520   -0.72262315963371   -3.04916301371921
H           1.16397957669983   -0.70064010656334   -3.86365856397332
O          -0.87910728089683   -1.99865592852763    1.59826972033006
H          -0.41212169479793   -2.20948790069281    0.77606977596067
O           2.25499903734199   -0.01571915502662    0.47592872324938
H           3.13002167784835   -0.38257502023531    0.34462111985718
O           1.24122742251523    1.56880957696210   -1.71098446902091
H           0.30255260453513    1.39600250607921   -1.51482408808559
H           1.71127001171908    1.38415715324106   -0.88792832340015
H           1.61061550003685    0.18800166231352   -2.67342204674983
O           0.45882332795957   -1.47064656904016   -0.77543777848109
H           1.62374342122510   -0.61765718305962   -0.01120528382763
H          -0.23734884305566   -0.78278428864043   -0.86769266766246
H           0.89742334036577   -1.47723311150067   -1.65297771341833
N           0.32923166977457    0.19025248178464    2.34834113367686
H           1.21405873667103    0.22724337075658    1.80600070616701
H           0.48261800438534    0.38186855743677    3.33187894382599
H          -0.35723309955902    0.89468274100962    1.92051328431687
H          -0.11692477355774   -0.77422806562035    2.18621777554282
