    26
        -50.45447822  Gyration_radius:  2.54560726447 Dipole_moment: 4.574
 S           0.83595461489341   -1.29862397018279    1.92420828005248
O           1.75566785949398   -1.12271430632331    0.78263687264207
O           0.03346278289458   -2.47800545488079    1.76454482403208
O           0.06563700690388   -0.08691649798705    2.14982368719888
O           1.75681938107480   -1.48614664478399    3.20247178068646
H           2.07943571795354   -0.60942883046104    3.39806193406797
H          -1.22605596307242   -0.37767509011855    1.25473383155486
O          -0.28412733728207    2.98238430451922    0.29759481546846
H           0.04221660952735    3.84981232136414    0.05536487582138
O          -1.90757344139566   -0.77525857654531    0.64511817626114
H          -2.29957131243622   -1.48254994234171    1.16315275557561
O           0.04878402591914    0.42417920935029   -2.59341661049867
H          -0.09612953348247    0.64160417574911   -3.51442395427414
O          -1.86421069535854    1.40152099628188   -1.15792455134005
H          -2.12197237397720    0.71549376690386   -0.52800199556527
H          -1.40381144166823    2.07815058367624   -0.61169231485153
H          -0.70789398717647    0.85113286505861   -2.07897990996923
O           1.71048949688210    1.31876379892455   -0.38327018221106
H           1.80282500443921    0.49846512258431    0.13433706731776
H           1.36499109174616    1.05060156407188   -1.24460657461325
H           0.48307036283373    2.37129789817649    0.22506116570113
N          -0.01728459012557   -1.71581560706434   -1.00733754087453
H           0.81586780564531   -1.57514839795046   -0.35098789334607
H          -0.85487045008693   -1.46448679924214   -0.41374130764824
H           0.05169382686568   -1.03046787409847   -1.79524878493675
H          -0.06341445098805   -2.68016860466324   -1.31747844621342
