    26
        -50.45730960  Gyration_radius:  2.44917427818 Dipole_moment: 7.988
 S          -0.66745804399225    1.66980618935161    1.62038821325133
O          -0.63643267161315    0.18913129458064    1.82991928728335
O          -1.43269712463530    2.34686379884982    2.60595411924004
O          -1.00356987849740    1.95381395017868    0.23188700482779
O           0.85878520411003    2.08883398716319    1.75968553513647
H           1.19494484568274    1.94230294199395    0.85925351557741
H          -1.72084712316320    1.06513984453083   -0.82614581097830
O           1.94048356552132    1.28941793518835   -0.59709856834193
H           2.32321692274735    2.01989801152922   -1.08404330183104
O           0.37711742874821   -2.50980576267098   -0.63586851949971
H           0.32064663276904   -3.45813681704057   -0.75376865431448
O          -2.10451324211379    0.47023306928620   -1.53208561215010
H          -2.76599843911137    0.99525954842196   -1.98368411902806
O           0.46053468351746   -0.15890987416397   -2.18614583884152
H           1.33697282697192    0.81473369959069   -1.24027646691424
H           0.50547299566006   -1.06033463446657   -1.83505032269983
H          -0.47467661356735    0.10676649216395   -2.09340421664261
O          -1.85627859789082   -1.58001500272210    0.24150406066987
H          -2.16642575186531   -0.98397933926050   -0.46205563771542
H          -0.53433038671504   -2.21040865233983   -0.30975059183492
H          -1.55290683786278   -0.97671079088546    0.95143036596428
N           1.55622394246387   -0.81941877768620    1.09333520643177
H           2.02462951486326   -0.08309655968252    0.54885610970964
H           1.27396287739665   -1.59818445050986    0.45906106548575
H           2.13717382482462   -1.14068836277650    1.85897682854866
H           0.60596945575445   -0.37251173862718    1.47912634866384
