    26
        -50.45730959  Gyration_radius:  2.44894495735 Dipole_moment: 7.982
 S           0.11752551720217    1.46415938120468    1.92295929040524
O          -0.17519576999242   -0.00263123381691    1.93846557048110
O          -0.23650911923533    2.10649525480761    3.13844381936032
O          -0.41764487240015    2.05005054130182    0.70147321331401
O           1.69459378412075    1.51856151657330    1.73896150606680
H           1.79032693138120    1.46165920732872    0.77303954917838
H          -1.53723127591399    1.53449865526238   -0.24952513241684
O          -0.39576737376164   -2.38158974253271   -1.00792081048720
H          -0.70867849295192   -3.26045769889981   -1.22269113963923
O           2.03228359441645    0.93088914671730   -0.88802130757737
H           2.47273602552471    1.63857608895669   -1.35965145718012
O          -2.19456844013722    1.16767168121843   -0.90741568209748
H          -2.78485117276389    1.89200274792301   -1.11735196077266
O          -0.05633259339900    0.13159973662408   -2.23442188785208
H          -0.85681259503672    0.56985771676428   -1.88680694552780
H           1.21012884532762    0.71569407069130   -1.41806372844159
H          -0.16397541033867   -0.80592676795080   -2.01682535533053
O          -2.09746018064878   -1.16554691156510    0.49101438889746
H          -1.51379477262098   -0.77433435316108    1.17387911203250
H          -2.38964452212298   -0.40355419490410   -0.03864195689918
H          -1.11680066160344   -1.95632785532341   -0.43679351640577
N           1.49726222907321   -1.31100830783106    0.57552233547375
H           2.01039703028610   -0.60813975263723    0.02729458322760
H           2.12589071215906   -1.87792956026735    1.13264184865654
H           0.78847749426701   -0.74599626620054    1.23155346253023
H           0.90564509916625   -1.88827310029142   -0.06111780899068
