    26
        -50.45966325  Gyration_radius:  2.593722837 Dipole_moment: 3.958
 S           2.13693836607048    1.05461261405965    0.48363130747633
O           2.05013401087183    0.21012250886872   -0.68521363972740
O           1.64254749092612    0.36003588350581    1.67137426920531
O           1.53544560145821    2.36509646792545    0.32503486325332
O           3.68477672076592    1.31930403126131    0.73821837954727
H           3.66535043500193    2.02369431786606    1.37844730518638
H          -0.03320473735614    2.26078746578359    0.01228758522851
O          -2.00935828832850   -1.73999404685728    2.00664359924102
H          -2.68220686800345   -2.42064858808130    1.96314454064500
O          -0.67947005389942   -1.47381008814083   -1.67050329134139
H          -0.48152373963183   -2.10380128925333   -2.36408250974904
O          -0.97779306429435    2.19144773451349   -0.28173700957126
H          -1.35910651056471    3.06021412825652   -0.14577290486256
O           0.16718903919649    0.84666382428498   -2.41935343754491
H          -0.35101465551271    1.46807572217303   -1.88357979495139
H           1.00175606951099    0.72343141831454   -1.91953916688069
H          -0.37457560319699   -0.58047625696435   -2.02453117489256
O          -2.49234560769505   -0.09766013049546    0.00553306367840
H          -2.29311615091316   -1.03196335048792    1.37342095393206
H          -2.01740375732902    0.75138094914442    0.00709465508798
H          -2.08198049893619   -0.61448658171845   -0.70132524912043
N           0.39376975849113   -1.73301434579813    0.82311550410555
H           0.91830828368057   -0.86123310949883    1.17321319320729
H           0.99889942566166   -2.54105327846787    0.92035453888236
H          -0.48318543351237   -1.83805818299939    1.39209340985493
H           0.12116976753746   -1.59866780719714   -0.17796896988908
