    26
        -50.45490178  Gyration_radius:  2.54549455604 Dipole_moment: 5.620
 S           1.44560364807223    1.12895597225114    1.47979677221751
O           1.30446862593239    2.48633267211604    1.02013779519642
O           2.51010366599427    0.39332473314621    0.78317015110878
O           0.22215006521607    0.35546835450362    1.49852269322291
O           1.92622373651993    1.23268902708257    2.99819172047748
H           2.35835216776062    2.08092081385873    3.01025777294286
H          -0.28849157926015   -1.13226344616426    1.33798887959626
O          -0.47315390214286   -2.08988325972634    1.13697557013155
H          -0.73382784356665   -2.48765962162833    1.96842338921574
O           0.03762101136849   -0.15573404498380   -2.26967260943924
H           0.27488880434472    0.15301543389489   -3.14475048006553
O          -2.88732325181067    1.16116840161549   -0.05594819548331
H          -3.59182828827664    1.47512488229220   -0.62475781898334
O          -0.44265373643577    1.96367266838791   -0.93533435268420
H           0.18692484139272    2.21424658974147   -0.23312757872802
H          -0.13342550453428    0.68890561817194   -1.72345097811667
H          -1.29387568624031    1.78318842433786   -0.48200719286073
O          -2.18139136599523   -1.30009267130244   -0.93802929122833
H          -2.73230795444616    0.22329968647091   -0.30157853018275
H          -1.50081878318148   -0.97957795986451   -1.54690903816193
H          -1.70141833682000   -1.67327370634688   -0.18266630622510
N           1.55064256299949   -1.53679634304417   -0.57346923430313
H           1.01196673106451   -1.05309115244823   -1.33758697819081
H           2.24548633302446   -2.17515583887815   -0.94374166831676
H           2.01301969661056   -0.74014029506721    0.01468101555444
H           0.87306437241691   -2.01664493841846    0.04488448330236
