    26
        -50.46161837  Gyration_radius:  2.73553027623 Dipole_moment: 3.823
 S          -0.87347634579550   -2.11268573279437   -1.07794766484317
O          -1.78112488994674   -1.25474726017654   -0.34955033310437
O           0.36190890989419   -2.36988509632585   -0.34110036068334
O          -0.59699930923895   -1.63355846904940   -2.42448705695063
O          -1.59606694633638   -3.51404660639156   -1.23760821513222
H          -0.95014320093631   -4.01635652097958   -1.72422485683941
H           0.14571146847528   -0.23364884475985   -2.53290293599480
O           2.73704087341577    0.84063286914738    2.11777424958249
H           3.12214473049249    0.18173941817528    2.69739042893919
O          -1.31035478879992    0.89906478478463    1.21023094973329
H          -1.66665698254875    0.00611852231865    1.06715956803378
O           0.60088085959932    0.65243157275023   -2.49847898284962
H           1.03020631364833    0.76143243586009   -3.34791089829446
O          -1.90170901137067    1.31256342427718   -1.34210067408513
H          -1.62333777496648    1.37806633693250    0.41032887908656
H          -1.10538294579760    1.35623943540422   -1.88808579266508
H          -2.08310277252153    0.36314872921509   -1.23647166361544
O           0.41689079576943    1.70243592417072    3.21162237336743
H           0.22907315616092    2.62184245825728    3.40627024734890
H          -0.29309308217913    1.39778305022470    2.62028212515681
H           1.97374303753671    1.21983174561744    2.60275661857288
N           1.05610229013668    0.09612422763836    0.13155957447236
H           1.14890465154862    0.49479487921512   -0.81606748435237
H           0.90157048694917   -0.94672411819183    0.01841740787794
H           1.86748564425173    0.31698298796539    0.74546613612447
H           0.18978482255118    0.48041982671999    0.57767837112536
