    26
        -50.46163565  Gyration_radius:  2.55511871939 Dipole_moment: 2.247
 S           0.52188172335293    2.25590597981701   -0.21641466918709
O           1.55202618039461    1.31493399061089   -0.65406435477537
O          -0.00333441637831    1.87262445924232    1.07315984393970
O          -0.47824583167710    2.48650097048501   -1.24175386304067
O           1.24968491115183    3.65647465706421   -0.01555453335138
H           1.24231602438972    4.01487241571887   -0.89739920235202
H          -1.20502389197380    1.09184468918001   -1.53754764273023
O          -0.86574530980930   -1.45697611791816    1.80680180622433
H          -1.11226189139691   -1.70215021402555    2.69894496119541
O           1.97690821975900   -2.36452708414252   -0.93689063454973
H           2.26071351540598   -1.81616683803782   -1.67144128503234
O          -1.70899241561705    0.24481345010203   -1.64618810421337
H          -2.23552177157511    0.35033483168880   -2.44033095705917
O          -0.65943005895559   -2.20824259229536   -0.90993526868211
H           0.99449363188334   -2.45396017527867   -1.03197436175628
H          -0.85431981058698   -2.18400452488507    0.03687865840158
H          -0.99513466796149   -1.36630636380951   -1.26258480981980
O          -2.29159004063931    0.55132444456811    1.03971464338391
H          -1.55788142689313    1.19378369412246    1.14056040873957
H          -2.36552937921420    0.41561740646107    0.08121878339548
H          -1.47737602669794   -0.69843981719756    1.54877052678165
N           1.61126426866947   -0.64244555365664    1.03570789905424
H           1.89537074661203   -1.42119560579252    0.37568808320944
H           2.27907846841091   -0.50753408328906    1.78609213739673
H           1.56405547419281    0.23287419727160    0.42126076086830
H           0.66259377515058   -0.85995622600313    1.41728119395936
