    26
        -50.46161846  Gyration_radius:  2.73509402103 Dipole_moment: 3.825
 S          -1.27533469329733   -0.25406588393888   -2.16559746512725
O          -0.66903583498816   -1.51980577692997   -1.75857926850789
O          -0.37882531368494    0.86699430977624   -1.99264762388915
O          -2.56559534324537   -0.05358765087537   -1.52210309453565
O          -1.56064518972723   -0.37717174953821   -3.71949804482452
H          -2.15133296532417   -1.12292292858169   -3.75493993800013
H          -2.54629548593604    0.08606760682691    0.06021725147770
O           1.40716728589712    1.41709147621446   -0.04475811352788
H           1.17265827016583    1.25694129628189   -0.97451297856441
O           2.00439880899017   -2.11877277937876    2.04406231291743
H           2.46106226144085   -2.86858622626927    1.65978723544348
O          -2.43141681099335    0.17323722060565    1.04643941345124
H          -3.28893170943731   -0.01574775715771    1.42942849145566
O           3.36783350916263    0.13396367728537    1.41976775842041
H           2.58956868038626   -1.34345244136984    1.91017210368404
H           2.79397149850120    0.64427902730980    0.82249627195477
H           3.69908459367724    0.75477412437957    2.07034482805995
O          -1.02115112243422    2.46648423795869    0.15794018296836
H           0.70246881986637    2.03984976049560    0.24241598841865
H          -1.02618646210541    2.09880259824802   -0.74211152392809
H          -1.61330827353386    1.89531706815339    0.66512768194863
N           0.06539834865379   -0.84728412188632    0.64858498209043
H           0.61888637811178    0.02342750163374    0.46783886737030
H           0.64241450961685   -1.48836510215778    1.23186911358062
H          -0.82706561691986   -0.58856478613089    1.09807240881568
H          -0.16978815282400   -1.25890270097986   -0.29981682116771
