    26
        -50.46161845  Gyration_radius:  2.73537015545 Dipole_moment: 3.822
 S           0.37494276720903    1.38343221294084    2.08101958841489
O           0.93285114093883    0.04137802142597    2.23275292730756
O          -0.92955580734353    1.37056932625694    1.45768700293969
O           1.31345994606248    2.27496399207977    1.41506186929128
O           0.17699607905437    1.95098749704771    3.54728055438713
H           1.06549170069782    1.93409578185005    3.88862816843089
H           1.68924573661382    1.90618962312843   -0.08358026668048
O           1.85363768328572    1.60056369164157   -1.01796476639252
H           2.67859224492883    2.00659875591176   -1.28686338974823
O          -1.91506063051664   -0.14452399651478   -0.54862153639534
H          -1.93480191600568    0.18669646869278    0.36502638999282
O           0.67751469314197   -3.35252760651947   -0.99177412375266
H           0.75043191144500   -4.04639562366882   -0.33479303141114
O          -0.90631253398194    2.23148328409839   -1.15967734064043
H           0.03187005517409    2.17129759333742   -1.38406820316731
H          -1.76420503751463    0.67889782846861   -1.06469940631990
H          -0.93180968031071    2.25840764822849   -0.18806525076499
O          -1.94249434703372   -2.78577221115993   -1.36035455284782
H          -0.27832077433801   -3.26444139701966   -1.19245874294668
H          -2.07593932588811   -1.88227225502489   -1.02513977804697
H          -2.38195816184569   -2.82510979052867   -2.21102748975326
N           0.71959362631344   -0.75336510005635   -0.23883464175667
H           0.93410638811584   -1.73636224656685   -0.50669700017010
H          -0.29289072080316   -0.57059497875512   -0.43550308188686
H           0.86493112694009   -0.57095074803187    0.79552771374122
H           1.28968382567610   -0.06324576126706   -0.75286161180932
