    26
        -50.45490182  Gyration_radius:  2.54727497236 Dipole_moment: 5.600
 S           1.33137207543539    1.95193265078210   -0.01666485022545
O           0.80566154706966    2.64873874326734    1.12880480308953
O           0.60849418845925    2.25855754160919   -1.25883470112080
O           1.47575906168728    0.52084584408200    0.14695175337030
O           2.80574110337926    2.52430984958135   -0.23220114588093
H           2.74361243086817    3.38368776358599    0.17297657105836
H           1.41617882728108   -0.82303505059359   -0.68486384024283
O           0.04677152113649   -1.52611865868612    2.70991419314781
H          -0.49626846866991   -1.91832229536155    3.39521262943903
O           1.27628639634780   -1.58283845492328   -1.31294541508224
H           2.14065703778761   -1.97170207008102   -1.45147527663617
O          -2.25924049744029   -0.25053603306840   -0.16450626595275
H          -3.16054955461258    0.06229716999294   -0.07994182901910
O          -1.01168972935369    0.80451937406934    1.79345914533955
H          -0.50106389298760    0.06664733345146    2.19029402467009
H          -0.36249489899034    1.50735272467875    1.60147827787991
H          -1.74951675799643    0.18672916690014    0.60346306378975
O          -0.74334382242968   -2.58495520598269    0.34653990566869
H          -0.15979890637543   -2.01244766265769    1.88238283896846
H          -1.40785302068362   -1.90525686812865    0.16477820803776
H           0.00427289631897   -2.38237946746117   -0.23696430851712
N          -0.57371730461110    0.19603374084809   -2.17234890718747
H          -0.94368154548116    0.30612085923432   -3.10958292393977
H          -0.06085683386349    1.10087764433408   -1.83653905096969
H          -1.33385204125254    0.01877501164854   -1.46607783469947
H           0.10912017900044   -0.57983365114596   -2.11330906498931
