    26
        -50.45147866  Gyration_radius:  2.46535584643 Dipole_moment: 6.104
 S           0.76417299293087    1.79081102999985    1.40253342927659
O          -0.21036972099228    1.75645508937560    0.33199827338202
O           1.41977958094855    3.02855877363177    1.60724956921569
O           1.78587323234057    0.64414600257939    1.14989326107833
O           0.10166524733220    1.30121432983518    2.69952920217340
H          -0.19551594086682    0.36500798861007    2.49009854351287
H           1.99897698107739    0.52588403700036    0.17250820746511
O          -0.54959760102425   -1.11038301428507    2.08191587852147
H          -0.18104788975106   -1.67208756950013    2.76596762168335
O           2.28031151458653    0.26973847159733   -1.33954103582945
H           2.96208173647821    0.86904047993167   -1.64835309793503
O          -1.79626011049796   -0.93669162080265   -1.86564329946731
H          -2.55570129099047   -0.98248643414989   -2.44767369374674
O           0.01407605330023    1.07500005379246   -2.27058468935849
H          -0.18356795184486    1.54769255739637   -1.44410119848489
H           1.42773462900306    0.55180579744625   -1.79931594968444
H          -0.61121835739033    0.32383688452967   -2.28163706713235
O          -2.41581879878983    0.21485772672372    0.43184861335049
H          -2.14509087931327   -0.37132136085009    1.14791025102723
H          -1.72934962538014    0.90737466688800    0.40281337823418
H          -2.11805610621846   -0.52775849513269   -1.02001252957709
N           0.43501999346247   -1.96371383846157   -0.19022957866051
H           1.26736102364520   -1.46028877787104   -0.47475564788499
H          -0.12605804063078   -1.41297220006054    1.20201426950666
H          -0.28387913544941   -1.78002695331075   -0.88522151124617
H           0.64447845402336   -2.95369363490862   -0.21921118941514
