    26
        -50.45966328  Gyration_radius:  2.59372567016 Dipole_moment: 3.957
 S          -0.86023499240267   -2.27343434612578    0.06453811914076
O           0.60156832107556   -2.29280828336875    0.04675759667732
O          -1.37983393401332   -1.38367546060014   -0.94800419504904
O          -1.38907290978774   -2.04409615485296    1.39570471494920
O          -1.32698549348821   -3.74017559528057   -0.33734148475588
H          -1.13206449698091   -4.23599012066526    0.45172338398071
H          -1.03718566584108   -0.57281225721345    1.92574918478441
O          -0.42075550026571    1.79635900564857   -1.42152684117725
H          -0.75732986950840    2.15343355866923   -2.24393880720619
O           3.15137091503089    1.07731955048966    0.02279705777809
H           3.67373713420138    1.82908987916586   -0.25980359874675
O          -0.90780552461051    0.36882178079949    2.20869313047181
H          -1.06944597362080    0.38329948667230    3.15330665270226
O          -2.41367273469966    0.87618507618524   -0.06375363258626
H          -2.08752980204852    0.86360516865608    0.85014519632501
H          -1.23372409942668    1.49300531983289   -0.90825296258537
H          -2.24730653321538   -0.02994694243622   -0.39958031451864
O           0.93368445805616    2.06323529460467    1.04491238325342
H           0.36886124772142    1.45073055280183    1.54713793519793
H           2.40777423927846    1.44696494132497    0.56425420235676
H           0.45825903155856    2.22395229404420    0.21828980279603
N           1.33837512506069   -0.28739769209624   -1.40073514360733
H           1.58106165016215   -0.62032213406249   -2.32745430262485
H           1.02736636414920   -1.12458421277524   -0.80065583343085
H           2.15894524458512    0.16753877157828   -0.92797945458701
H           0.56194376903047    0.41170251900035   -1.45498278954318
