    26
        -50.45442021  Gyration_radius:  2.45709451669 Dipole_moment: 5.535
 S           0.03037113759981   -0.52450100220272    2.31667038659893
O          -0.38614072757279   -0.76356973235471    3.65840296914182
O          -0.23645762515065   -1.57991876424437    1.35608017967511
O           1.62679591284575   -0.37932115122153    2.37775772960957
O          -0.41900470734688    0.77026535656553    1.76608383012214
H           0.67823413907205    1.52951741911219    0.81423581004236
H           1.73798162619185   -0.43821004463694    3.31976959843870
O           1.22819903984751    1.99501215916881    0.13952103209106
H           1.43043428551687    2.85616637504331    0.50795562905636
O          -0.12680777029404   -0.80852358057020   -2.48347848152983
H           0.16299991425841   -1.25336422249592   -3.27971753775821
O          -2.23576068800317    0.89342492649637    0.01684502530462
H          -1.59425940575222    0.88664111286994    0.81412906353669
O          -0.67129507714964    1.74460742600717   -1.75599474343026
H          -0.48006532345365    0.89994558239346   -2.20907934055788
H          -1.68099010221789    1.34806636297362   -0.75737844074548
H           0.11038091662207    1.92730760989562   -1.19079570498629
O          -1.98249000550869   -1.50028052952393   -0.62174611087488
H          -1.39629202134036   -1.40490778421390   -1.40014181073003
H          -1.38982400788672   -1.72264659093549    0.13125134487153
H          -2.28340469480965   -0.13477261150583   -0.27115235369919
N           1.67344114305952   -0.87966955554001   -0.60453898213240
H           1.10768592495287   -1.20630438032743    0.17969765209821
H           2.50895170379838   -1.44951912681330   -0.63472249015530
H           0.63061193697298   -0.87436680852335   -1.80697739510051
H           1.95670447573921    0.06892156458217   -0.38267687888403
