    26
        -50.45442022  Gyration_radius:  2.45705440156 Dipole_moment: 5.537
 S           0.40377923251612    2.21161798010565    0.76717151886192
O           0.96971573426747    1.78838779913797   -0.50105989514208
O           0.28819926170627    3.61651099985382    0.97648563886023
O           1.41495519114394    1.68684017163225    1.89648474270267
O          -0.83859775308623    1.45741031191434    1.03035545338471
H          -0.61788383024668    0.00406718690787    1.75493458640326
H           1.53795381206542    2.50373060983109    2.36637498424511
O          -0.56857961209506   -0.92694281862170    2.07935831956361
H          -1.04172369073295   -0.94465975515228    2.91243840334236
O           0.48177672832085   -1.89890141599639   -1.73205399606207
H           0.99963901511976   -2.55854350848136   -2.19302148992879
O          -2.20106878989290    0.47327554879361   -0.85394329690688
H          -1.74571235522841    0.96824475317316   -0.08266905816344
O          -0.31313164078687    0.59228900429420   -2.47357298646125
H           0.02544706920811   -0.32374489429714   -2.40378734543906
H          -1.49945304878190    0.56440027836187   -1.65501725127751
H           0.26245353576911    1.13337303383184   -1.88742225006558
O          -1.72296419412054   -1.89302181425907   -0.15615795481007
H          -1.30568464983578   -1.71129859323002    0.71375454137796
H          -2.14136884549342   -0.54396498081683   -0.57910555023440
H          -0.98656531066166   -2.08689450315348   -0.76887541414421
N           1.79658232763598   -0.81123144081889    0.23372507568473
H           1.06025185611927   -1.53086331119060   -0.97995714025978
H           1.63775630945293    0.17749872329688    0.03622599570491
H           1.31634981431040   -1.01399362378930    1.10410655311862
H           2.78787382333010   -0.93358574132174    0.39522779564184
