    26
        -50.45442007  Gyration_radius:  2.45702228892 Dipole_moment: 5.543
 S           0.01687577330816    1.19666730131028   -2.05185532888489
O           0.34342057314041    1.61680065357883   -3.37388250901249
O          -0.80630786442490    0.00663171197284   -1.93346512113530
O          -0.84441875833426    2.39202681341869   -1.41750113584830
O           1.18035780279280    1.08467185043619   -1.14887197715707
H           0.90214613009751    1.57847861198533    0.38865208663632
H          -0.78279736567318    3.00767104994096   -2.13888950926154
O          -1.00560948029195   -1.90691733808848    1.47974638486299
H          -1.67174657001121   -2.36598808138024    1.99088415506324
O           0.79004235174436    1.74261428602329    1.35560139955995
H           1.38769324463031    2.45853173369425    1.57594517461941
O           2.06691110245832   -1.16445925237257   -0.41979989358753
H           1.81619589445698   -0.24764607062884   -0.79873891551660
O           1.41754379099172   -0.80285888667834    1.98041163584659
H           1.18101156992568    0.14863498832588    1.93030099946660
H           0.56876665382039   -1.28772438043469    1.98329652707498
H           1.92577972271924   -1.06092751951538    0.62131700387234
O          -0.03926298811126   -2.34906281382767   -1.02269128991082
H           1.25652061202267   -1.78916018256294   -0.72772588047716
H          -0.47466564032135   -2.37429301570306   -0.14622583691721
H          -0.43324707184772   -1.57994729291567   -1.49271738075738
N          -1.82010764540234    0.42903393565318    0.66961905347206
H          -1.39721051562518   -1.00725104165206    1.20979486308674
H          -1.22782108148425    1.14405539657306    1.07867508694925
H          -1.57341597221183    0.37668833358313   -0.31945542099644
H          -2.77665428837558    0.75372920925949    0.72757582893934
