    26
        -50.46111936  Gyration_radius:  2.71258370445 Dipole_moment: 3.932
 S           1.10304695287826    2.20273965114787    0.02945933077271
O           0.66099841665648    1.70848770819201   -1.25655294915359
O           1.79864722389622    1.18376230090384    0.81100044517112
O           0.03220306325434    2.82017924265307    0.79720989117446
O           2.16732151923077    3.33882839525210   -0.26187745397588
H           2.43574067796605    3.58513597690273    0.61741809593595
H          -1.14657150242663    1.88411452364454    1.30520057314078
O           0.48238570099290   -3.30835096926443    1.29143816347314
H          -0.11988598514510   -4.02195261305154    1.50499016046555
O          -0.28510183895545   -0.70831161009450   -1.82430696131557
H           0.29341147946897    0.08072364962791   -1.84558769563083
O          -1.84371145823880    1.22273776312885    1.56905515036879
H          -2.30475233624266    1.60970526754240    2.31429327817846
O          -2.08313197324737    1.19964216646595   -1.27447506244321
H          -1.24793400349030    1.68846370782364   -1.34502905710751
H          -1.17534618753872   -0.31255825662751   -1.89545020487427
H          -2.31706101502932    1.23007502280729   -0.33824223912246
O           0.84175587238473   -3.19225691325523   -1.38583884513925
H           0.37887664773545   -2.39155932800236   -1.68668888757934
H           1.73672015654915   -3.12623795025778   -1.72302802463283
H           0.67592864733381   -3.38749476680055    0.33279435570036
N          -0.02415491972513   -0.67740569543900    0.87359252696430
H          -0.82808929558043   -0.19911831628198    1.31110080795483
H           0.16749522721930   -1.61286440401360    1.28064418562744
H          -0.20635908237495   -0.79114007751809   -0.15274562409155
H           0.80756801236037   -0.02534447547515    0.95162604017242
