    26
        -50.46111934  Gyration_radius:  2.71271601197 Dipole_moment: 3.931
 S           2.37967665569868   -0.55888788761290    0.31045730515296
O           1.92013921081128    0.54858200534725    1.14434197104656
O           1.90154541641280   -0.46212563661885   -1.05174843124408
O           2.08208649166155   -1.84392062885357    0.92493358191865
O           3.95761503018367   -0.43925712492752    0.24754743447336
H           4.19311469279654   -0.47270752761662    1.16910519893008
H           0.55687102111776   -2.19926322896958    1.19175744006523
O          -2.42624432396221    2.35187858013044    1.19452004415303
H          -3.38030852222100    2.32314069301906    1.27505879712900
O          -0.42310491816049   -2.33734793645116    1.30850916013756
H          -0.51529393218684   -3.00707662403659    1.98722406335647
O          -0.47045463085678    0.40418835607565   -1.87759631779629
H           0.50041265228197    0.34767530551515   -1.76860119753858
O          -1.74529206474769    2.80444826745051   -1.38254526150956
H          -1.09184048742904    3.48053632612604   -1.56918540768194
H          -1.37410189470842    1.96931158398456   -1.71521497367277
H          -2.23508210367038    2.64033330694874    0.27636233057326
O          -0.19643781710248   -2.23818047001094   -1.53448205313959
H          -0.44822579797891   -2.52476795620721   -0.64754417064896
H          -0.70996023860451   -0.52272905728624   -2.07177907177747
H           0.70982887713833   -1.90278109687019   -1.44679130983523
N          -0.65696452403945    0.33045748675710    0.82566253050088
H          -1.31446984344331    1.03398236503853    1.21338264936291
H          -0.71608080584347    0.35986108549610   -0.22083595231659
H           0.35230671881071    0.54530855101113    1.06689554269090
H          -0.84973488202530   -0.63065872734417    1.15056610766449
