    26
        -50.45730957  Gyration_radius:  2.4484979873 Dipole_moment: 7.974
 S           0.45566264188133    1.10426255559100    2.10241569451468
O           0.85705604062149    2.10065707246673    3.03050341335346
O           1.39453510666863    0.98128861517129    0.94468386560753
O          -0.91145986543745    1.19373431450517    1.60777085555140
O           0.54116427109606   -0.32407644807943    2.79328048906036
H          -0.11415431850941   -0.83509002670515    2.28857337186369
H          -1.44701549205976    1.62487088226212    0.21048157536513
O          -0.93971834633928   -1.89396247740947    1.14851632259421
H          -1.68271034920311   -2.29167404569826    1.60350721725881
O           0.77628605955407   -0.71365157741485   -2.39321453162475
H           1.14955338842062   -0.76578730700220   -3.27319855778495
O          -1.79070754917800    1.81800789766722   -0.70805136085966
H          -2.51662908305851    2.43156691562550   -0.59105000600527
O           0.79504709758080    1.71848425748163   -1.55315157538434
H           1.12924344902932    1.60858176697495   -0.63869724270844
H           0.79748225395188    0.26586925762095   -2.13442748737746
H          -0.14428618226238    1.94466880077697   -1.43901954581842
O          -1.73128480096635   -0.87284012695196   -1.12019957073219
H          -1.31720386583877   -1.46534690641718    0.32580101762024
H          -1.89719829248892    0.08295440810271   -1.00957015157916
H          -0.96789634071405   -0.93222790099629   -1.71317564804754
N           1.53012708466803   -1.39226839334375    0.09839154402880
H           2.41388336177287   -1.84743962923684    0.29526695683718
H           1.35162376517684   -1.30466218930401   -0.92581191485838
H           0.74549034201251   -1.88536642015086    0.54467503949160
H           1.52310959362173   -0.35055330553670    0.50570023963309
