    26
        -50.45909999  Gyration_radius:  2.54000498651 Dipole_moment: 5.600
 S          -1.39811416395523    1.91441899619647   -0.12441340286711
O          -0.29745292791067    2.75802682195235    0.34616468154796
O          -2.24971317771447    1.41440228189380    0.91942405172517
O          -0.87550165028727    0.87289538176355   -0.99963855175416
O          -2.29904464593213    2.85534797534109   -1.03771191671010
H          -1.66321389721913    3.22329741961878   -1.64356061127507
H          -1.31621905147093   -0.65585482484091   -1.11495536240662
O          -1.55914798951912   -1.61877679335588   -1.13836177492729
H          -2.05850016509062   -1.74868815716557   -1.94506906012673
O           0.77612661403716   -1.04399661881579    1.91784500917777
H           0.92682270901266   -1.20098987725272    2.85061374190103
O           2.38158965957351   -0.26198439066631   -1.67065587721848
H           3.26852165432916   -0.58641903396994   -1.83199708758027
O          -1.76470973951849   -1.09747955145809    1.56799074708266
H          -2.03320628342663   -0.16192340656518    1.43156510314972
H          -0.23057071804279   -1.06815879890593    1.79932785142144
H          -1.88108205099602   -1.51527908191820    0.70071850963627
O           1.04136996369874   -2.27096659046953   -0.62495007095603
H           1.04972337110105   -2.03639908124338    0.31381708818407
H           0.10929023961838   -2.17508682812861   -0.89625681579230
H           1.84301459925695   -1.05419593828769   -1.40490140939822
N           1.66252417300083    1.09720408191927    0.52194415227814
H           1.32410120043725    0.30801725180875    1.12074321908871
H           1.91890136060135    0.69536547677595   -0.41646720080226
H           0.85987965193333    1.80572317960414    0.41196346053320
H           2.46461125448416    1.55150011616839    0.94682153609005
