    26
        -50.45909995  Gyration_radius:  2.53951768246 Dipole_moment: 5.602
 S           1.30345665407072    1.95783422428339   -0.31086371743735
O           1.01675773281667    1.97987738106996   -1.71875740047687
O           2.51571656882195    1.21853052792405    0.04749263757095
O           0.18846154057950    1.49180462971526    0.50369490351145
O           1.57590833891880    3.46393452042031    0.12349207872868
H           1.85101648672062    3.36987505239185    1.03027247925543
H          -1.33524520712966    1.27051442432861    0.08639859578218
O          -0.22590432363732   -1.28209535718368    2.61432158054168
H          -0.34581567436223   -2.05406946054808    3.16896626342696
O          -0.03207096522176   -1.88728812625801   -1.34369742840612
H           0.20742334239840   -2.47978284197106   -2.05710854755043
O          -2.26798529841315    1.08119277212496   -0.19796122322854
H          -2.80721127883505    1.78105732589193    0.17137865319070
O          -0.86617656785314    0.27701601159130   -2.43988720032352
H          -0.14920634673230    0.93563227851832   -2.30503563421265
H          -1.58695939069900    0.57751636428043   -1.86504144792515
H          -0.35787856696957   -1.03973168684360   -1.79479606528392
O          -1.98886101956589   -1.49143368498637    0.67131331466064
H          -0.97695436119316   -1.29202829408276    1.96314156526634
H          -2.24421091940956   -0.58778718688428    0.40709730813830
H          -1.43444935507960   -1.81235190865625   -0.05391662104567
N           1.60320135282834   -1.10881358961608    0.66582007759412
H           2.37221076677463   -1.75032830820562    0.83115500156512
H           1.02806712172118   -1.42312282734810   -0.15051799497226
H           0.96803032092795   -1.06827244149552    1.50404273941345
H           1.98867903852277   -0.12767976846407    0.44899608221362
