    26
        -50.45909987  Gyration_radius:  2.53942077028 Dipole_moment: 5.602
 S           0.63455556394176    2.26317001932604    0.32121468363580
O           0.42856535820788    2.56573680544920   -1.06838601695454
O           1.99780972538829    1.84326910281029    0.65269815083129
O          -0.31737488752823    1.29710894445184    0.85468551434431
O           0.39578478057344    3.61614563087664    1.12362175885148
H           0.63815128351456    3.37351382999326    2.01197527639999
H          -1.67007883970124    0.75757623659790    0.20338805821045
O           0.05426417664233   -1.92458925406207    2.19615071068602
H           0.15524647865850   -2.81423408738462    2.53712215597158
O           0.63367182488690   -1.39768428332896   -1.73583843199618
H           1.08441211283859   -1.68799934812425   -2.52953993243401
O          -2.47964279667142    0.38514957169559   -0.23547962660366
H          -3.23021248968902    0.77630797323886    0.21248064111851
O          -0.78149207929530    0.63590151851683   -2.40144740047054
H           0.08121930159024   -0.59543425319593   -2.01744041490741
H          -0.31660697554169    1.41641517666230   -2.02645937617112
H          -1.58911386985707    0.55299381262162   -1.87121000585122
O          -1.44904309290724   -2.12730407125626    0.04562934950262
H          -1.96237214565043   -1.30166750616830   -0.03371096436155
H          -0.78500356880727   -2.07259574739989   -0.65605745716771
H          -0.62044168377748   -1.98384031071143    1.46839372500803
N           1.83398698494315   -0.72598658917969    0.59374768844761
H           2.75617793098090   -1.13524604544867    0.70466704934681
H           1.17575316788640   -1.09154123852855    1.32923106192305
H           1.90158340527112    0.34600003864268    0.66104581990335
H           1.43020032409941   -0.97116592609192   -0.34048201726417
