    26
        -50.45909993  Gyration_radius:  2.53973167665 Dipole_moment: 5.602
 S           0.68267698341798   -1.94611854144447   -1.17410924816420
O          -0.63494307873703   -2.51324615587022   -1.09069642334044
O           1.56928958678025   -2.31251709901669   -0.06763038454681
O           0.68454763700900   -0.49856031511571   -1.34302330981718
O           1.35786182872675   -2.54971327901162   -2.48211946816727
H           2.24738231601603   -2.21411672347219   -2.42803229321457
H          -0.52993928754688    0.47105982321006   -1.70340626724858
O          -1.33355942645583    0.09772046570978    1.89291654261172
H          -1.85406944750623   -0.21024920579831    2.63564910541911
O           1.88944034591878    2.13077991945688    0.64774834477261
H           2.19585173229110    2.84773882454041    1.20453273216143
O          -1.30307667180269    1.07165732799810   -1.87151987257467
H          -1.22130047124343    1.36437617034154   -2.77959864934054
O          -0.71410436344008    2.43867600292631    0.41687343493906
H          -1.03967477845112    1.78023533333843    1.04681771852810
H           0.93454658551748    2.32443147967349    0.45051994751584
H          -0.97439885450751    2.09467394222393   -0.45802205784093
O          -2.46176200822799   -0.81850251415678   -0.22108409980921
H          -1.88028519396417   -1.54423231687156   -0.53915486856016
H          -2.35513377090370   -0.11285607658578   -0.87753037771445
H          -1.79309123030551   -0.27355879425224    1.06890878462456
N           1.31630657606871   -0.32485257427846    1.54980526779153
H           1.80919367438573   -0.51768906628807    2.41590619912897
H           1.45919535134075   -1.13966002246873    0.86137016189406
H           0.28953303053042   -0.21833754693032    1.72416239390089
H           1.65951291509136    0.57286093214023    1.12071665705000
