    26
        -50.45910022  Gyration_radius:  2.54114024965 Dipole_moment: 5.585
 S          -0.22389275748154   -1.91121957175192    1.39392059072887
O          -0.12743396172180   -1.06191437442137    2.58315815523819
O           1.03331987885391   -2.43722828168696    0.93802941096575
O          -0.97547958455202   -1.21596340210169    0.35684126755166
O          -1.11007155104226   -3.15849254393704    1.82951554614119
H          -1.87761189888757   -2.74235289476751    2.20949256371095
H          -0.71852834829017   -1.18624981089867   -1.21732544093798
O           1.90506033585157    1.27860684185347   -0.33253847115578
H           2.80743124784114    1.58122370703467   -0.22509195046018
O          -0.51636463238188   -1.13018484675933   -2.18829792954632
H          -1.17768713600346   -1.66364705324969   -2.62993799496974
O          -1.99581106820761    2.13473111237899    0.00170573637017
H          -2.25139584501877    3.05213981467886   -0.10297174978865
O          -0.37109707405640    1.58895681500447   -1.99540822523207
H          -0.48239999114183    0.64480951289477   -2.21372918984959
H          -1.49506369081882    1.89300225297835   -0.82233317268656
H           0.49072278109736    1.64071537741014   -1.55845837687485
O           2.03819834978574   -1.15337358951150   -1.13727724434294
H           1.29784160152603   -1.24319163202105   -1.75715588833899
H           1.78212659937751   -1.70223949205144   -0.36322856081908
H           1.97819295266145    0.31832490982265   -0.64983580202422
N          -0.00123844235592    1.30912471371288    1.58681610461198
H          -0.09457757459719    0.32469002534020    2.01192230883109
H           0.78504853087356    1.29606358122996    0.89579338694086
H          -0.87923886829254    1.55968750678472    1.06336446821124
H           0.17995016697136    1.98398133202517    2.32303046772710
