    26
        -50.45909996  Gyration_radius:  2.53975568447 Dipole_moment: 5.602
 S          -0.69810004780519    1.02385684556107    2.02382047010995
O           0.30774578682429    0.26098658497052    2.76605917798103
O          -1.98676804763139    0.39216761595731    1.95129268117411
O          -0.16143679935627    1.40400754782598    0.72326880802501
O          -0.89732842968447    2.37611636882569    2.83807286474421
H          -0.00432477969983    2.69296299717771    2.93202231420199
H          -0.89902118480581    1.45636528091449   -0.69029323628843
O          -0.32777357103877   -2.20306086935940   -0.63945478253391
H          -0.59802335092143   -3.11993734188571   -0.57859457894334
O           2.69100747009461    0.40060943818541   -1.06282280238126
H           3.45574655898891    0.10723015696722   -1.55984803502838
O          -1.35170801530467    1.43044744659627   -1.57408567004055
H          -1.51309070469749    2.34219486129487   -1.81835695112732
O           0.58381457499638   -0.26080166640483   -2.49418775871627
H           1.90816288744385    0.27409469853453   -1.66232885477934
H           0.28551745768416   -1.05879281460085   -2.03529483239524
H          -0.11095641968880    0.40084020349718   -2.31803995296201
O          -2.45330798968924   -0.79422904982413   -0.35955559445010
H          -2.32597693994553   -0.04192405853416   -0.95794410734247
H          -2.39802247352183   -0.40718063071065    0.54216404485000
H          -1.17842303395025   -1.66297735424920   -0.52642517520414
N           1.54860244852584   -1.01333619129788    0.90400247643188
H           1.06259799555883   -0.45347648499601    1.68418265584034
H           2.20904506490494   -1.66725323253599    1.31200179141763
H           0.81386281335734   -1.52136981163260    0.35812488370026
H           2.03815872935380   -0.35754056027306    0.24222015370892
