    26
        -50.45730945  Gyration_radius:  2.44930958563 Dipole_moment: 7.988
 S          -0.29783871216226    0.86508032836313    2.24191456645858
O          -0.87338030284078   -0.40193732361873    1.69373962521062
O          -0.92943057274901    1.27946313026590    3.44387177292482
O          -0.21507879614488    1.85718003663655    1.17865785658043
O           1.21193298353347    0.47573578755079    2.54860888640767
H           1.64103862505780    0.62298781898386    1.68867850636998
H          -0.98370786379911    1.94419329273741   -0.17241272130546
O           2.36069302890880    0.44732955657483    0.09058893324252
H           3.08050986088581    1.07534071673989    0.02236073752688
O          -1.41241796170364    1.96017908034506   -1.07540693535797
H          -1.71962435855810    2.85838954940368   -1.20192504190946
O          -0.48130781944340   -1.84231592355293   -1.79391052055279
H          -0.86769456430741   -2.50773324539782   -2.36347173710109
O           0.79647119785264    0.66007197297196   -1.98775107461002
H           1.76583782593987    0.62243094296205   -0.69608684298753
H           0.42471261281589   -0.22348395727338   -2.12587259137215
H           0.03397689463410    1.22791247703510   -1.76431928884881
O          -2.32331079037795   -0.54989104575335   -0.54586256845630
H          -1.25710081050242   -1.36315104153993   -1.35171034534598
H          -1.96448116060833   -0.52677712850823    0.36558842959790
H          -2.23543743596814    0.36650295902987   -0.86040951409495
N           0.87475016218867   -1.80061272000245    0.52918806859205
H           0.10774732458255   -1.21700255418674    1.09663437128660
H           0.45290299999322   -2.00489497411823   -0.40291566773381
H           1.68622245037660   -1.17939737439416    0.41220605147390
H           1.12401517239383   -2.64560034125364    1.03001703400332
