    26
        -50.45910004  Gyration_radius:  2.54022345006 Dipole_moment: 5.599
 S           1.01902913954990    2.07979760634873    0.52270199297538
O           0.10859861302124    2.76503841344255   -0.39718581079154
O           2.26180595490814    1.66881307113759   -0.07011765089163
O           0.31006221531818    1.00037153823401    1.19801221543874
O           1.37928469897631    3.14872900304937    1.64459463797900
H           0.52035317559954    3.44650276149796    1.92803783299023
H           0.83173641847820   -0.45721211926077    1.58267772096355
O           1.14805507836241   -1.38073497924996    1.76660198200500
H           1.29868937389823   -1.42832938133382    2.71109047085716
O           0.16255094985964   -1.17757984324025   -1.98946424022829
H           0.41044174460611   -1.37248664843843   -2.89389965473908
O          -2.80461723880813   -0.52605883165426    0.62628642581325
H          -3.64238753533834   -0.95712818678647    0.45232392168125
O           2.34826955275095   -0.89852942074749   -0.67572931334156
H           1.03680224480138   -1.07066418520492   -1.48712895943552
H           2.15733293616702   -1.27844574650507    0.19572258787827
H           2.43770460992722    0.06651177250201   -0.51250984383755
O          -0.95111445040839   -2.37066050108342    0.32980891285311
H          -0.21818992352874   -2.15034775892616    0.93471855236725
H          -2.12256815674486   -1.24896644116371    0.64796276039150
H          -0.61349150875338   -2.16073369774421   -0.55240034914216
N          -1.42935649011285    0.86377161667672   -1.20377112115522
H          -0.81753924811957    1.67126877230737   -0.84052183317581
H          -2.04233061745170    1.20232724465449   -1.93855464500045
H          -0.79851727657116    0.11087915254787   -1.56591993330221
H          -1.99060427038651    0.45386677894077   -0.41333663915535
