    26
        -50.45910047  Gyration_radius:  2.54066002096 Dipole_moment: 5.593
 S           1.49629093224266    1.62135149145160    0.87817561363100
O           0.84389773544256    2.67536605392647    0.15108116306641
O           2.60893397305799    0.99268972055322    0.16288263786132
O           0.58206726388117    0.59368089972214    1.35961206667728
O           2.14135515452384    2.28897294323142    2.17007692195527
H           2.64261927294635    1.57053922681717    2.54335828629934
H          -1.01234401466373    0.61305545989966    1.41781943037639
O           0.27157856132093   -2.83762387651205    0.64407232118476
H           0.17329601802251   -3.76576327808807    0.42769509556942
O          -0.73365021401064   -0.18705969426616   -2.18969437276192
H          -0.80600881570723    0.00199092057318   -3.12588125893186
O          -2.00538440484872    0.61321866371449    1.39667643022416
H          -2.29183205570376    0.72362849435095    2.30379461318059
O          -1.43888783550285    1.94821988707268   -0.95571763573176
H          -1.90801868855255    1.62973447462818   -0.16906904326315
H          -1.01555480788307    0.66608727357222   -1.71952824121708
H          -0.60646793452810    2.33857473161120   -0.60820449458056
O          -1.96247693862473   -1.66591676602313   -0.10530200444251
H          -2.11473797611938   -0.91234826342801    0.49507908631229
H          -1.69376319973741   -1.26293901269149   -0.94299933748697
H          -0.61831932332808   -2.42309406995218    0.48749396179394
N           1.49923170947776   -1.05610222810060   -0.93402625569396
H           0.67675637829218   -0.69212841903590   -1.46990541616940
H           2.15761354668463   -1.51473894012954   -1.55568633425176
H           1.97894229399539   -0.22557287057427   -0.44595813934667
H           1.13486335932071   -1.73382284232455   -0.21584513425315
