    26
        -50.45909998  Gyration_radius:  2.54021808098 Dipole_moment: 5.599
 S           0.59865128453636   -1.08665842050828   -2.02450454709070
O           0.38754792010731    0.15965801133547   -2.76396895472071
O          -0.55614992773276   -1.93918973453670   -1.95846801996366
O           1.17932354878428   -0.78922856746599   -0.72131601080596
O           1.70949308325088   -1.88423917198788   -2.83734037211068
H           2.40322677011986   -1.23796193651647   -2.92533048188125
H           0.87762487311625   -1.46879354760190    0.68996577298668
O          -2.11039813951079    0.72092608329161    0.63200536501881
H          -3.04857432061866    0.90302453820216    0.56817459758367
O           0.64114738663694   -1.85989062712823    1.57196430163220
H           1.37495819025410   -2.42305348214367    1.81976699786190
O           1.58790808406162    2.20265292165044    1.07642044925299
H           1.67557587712506    3.01628976073812    1.57462581947570
O           0.02397708369450    0.63315824972281    2.49668797398695
H           1.11247377895249    1.56490846847156    1.67258874215739
H          -0.81956119457067    0.73652491552545    2.03391855333398
H           0.29312880233420   -0.28745849798143    2.31896434746368
O          -1.83553083192420   -1.81374508144251    0.34690199101943
H          -2.02172436091019   -0.28251351316381    0.51672062417846
H          -1.11108403322525   -2.04735843500577    0.94765703208630
H          -1.46255895886724   -1.94061621747753   -0.55349547490627
N          -0.18287951705406    1.84212391651681   -0.90017003668383
H           0.62141081493121    1.97372260733291   -0.23418664312775
H           0.09453960927493    1.15487890079423   -1.68075306753020
H          -0.97481247053222    1.42260645403624   -0.35922707281634
H          -0.45771336223416    2.73023241534457   -1.30760185639935
