    26
        -50.46943975  Gyration_radius:  2.47845044619 Dipole_moment: 4.354
 S           0.23498899904009    1.97001723346053    0.59783967349042
O           0.46348218673712    2.77226959216092   -0.57817198952221
O           1.30788332154515    1.01447343627887    0.85345291213704
O          -1.07016381805035    1.32450197237056    0.62437655848615
O           0.22819188041473    2.97609486818894    1.82644664965352
H           0.81557106692093    3.66304204066921    1.52948876211206
H          -1.60869740608106    0.49319530650320   -0.60735434291890
O          -0.22839871224661   -2.62928300710704    1.77343675115817
H           0.53338629760116   -3.04603766736748    2.17932479072008
O           1.89631894263844   -0.52643699438224   -1.21441011602516
H           1.86114224506109    0.03502122572477   -0.41022285158681
O          -1.91734316917269   -0.08953933558543   -1.35353979561657
H          -2.87478065186681   -0.05049781128952   -1.33416051488051
O           0.36026013831667    1.08568008156812   -2.64635241970584
H           0.43708887757012    1.83006911528082   -2.01675276490420
H           1.51554214642022    0.05004888449640   -1.91935822293902
H          -0.53017100485722    0.73617213291063   -2.51965571392652
O          -0.17378816708520   -0.16994612527562    2.67430964544855
H           0.57721280302757    0.19793562069506    2.16863514886165
H          -0.92173140703171    0.31975625964030    2.30812556320334
H          -0.27929497218620   -1.71937592452685    2.17863845667506
N          -0.13575630550296   -2.07206339531592   -0.82909984000033
H           0.77911706555894   -1.49540668844558   -0.99480579435457
H          -0.18465972803420   -2.34745729718206    0.18844631005609
H          -0.92558551437953   -1.43169263018027   -1.05161092539309
H          -0.15981510438432   -2.89054090320221   -1.42702594018415
