    26
        -50.46943995  Gyration_radius:  2.47839811879 Dipole_moment: 4.355
 S           0.78270644337559    1.54716770533711    1.13491346201905
O           1.82928031658337    2.17964728293398    0.37101983795123
O           1.09510229949109    0.16849768911879    1.49744735900279
O          -0.53535023802239    1.65149352758233    0.52458073717583
O           0.67691709159797    2.35607346906356    2.49711532859228
H           1.56957547672426    2.66053355419182    2.62271999737913
H          -0.78063608225322    1.26935704047711   -0.98978679123771
O           1.79196154527826   -1.35395579846259   -0.55029016930090
H           1.65625773668347   -0.89240759706726    0.30514884954450
O          -2.10769523344172   -2.23350454679635    0.82137486473489
H          -1.87129119428365   -2.99850458677677    1.34823863648141
O          -0.94985527563672    0.96114183886759   -1.92135993336481
H          -1.69281241992877    1.47909921027507   -2.23487425598447
O          -1.38538573900292   -0.18995259024931    2.29220032751485
H          -1.92749880248459   -1.44470026592363    1.40469562479522
H          -0.41301581698654   -0.22908042788606    2.20264925579193
H          -1.59749366057377    0.62859999883698    1.82499048192110
O           1.91982688679556    0.88245251299065   -1.96135453806042
H           2.02855192224856    1.45311329650747   -1.17456949293013
H           2.05471547796655   -0.63011827343639   -1.16776913794690
H           1.01276883195723    1.02684426046605   -2.25702382578132
N          -0.64738242067280   -1.67398945081250   -1.33386333568576
H           0.39531097971103   -1.63293859917862   -1.00528702754926
H          -0.76128498855094   -2.33709222731060   -2.09235542222386
H          -1.25340992459611   -1.93595330570770   -0.51045772697592
H          -0.88986322202236   -0.71182371703750   -1.64810310586558
