    26
        -50.46944051  Gyration_radius:  2.47848830223 Dipole_moment: 4.362
 S           0.67016058675356   -1.28047037492081   -1.48571062901495
O           2.03710725687606   -0.93737253995706   -1.78975572067851
O          -0.27306547850105   -0.22242796943390   -1.83353447894122
O           0.47042199979289   -1.74487000605161   -0.12012212251434
O           0.30813796075192   -2.52352123282370   -2.40493822468871
H           0.83602952310219   -2.36410232741458   -3.18035994044843
H           1.03113312442842   -0.94072269555318    1.12069912125463
O           0.33530545672785    2.13824683394624   -0.80629082081087
H           0.04520659319424    1.36142811622140   -1.33123102830228
O           1.31973238308350   -0.39838282608737    1.90419122049454
H           1.48183971610543   -1.02693720139612    2.60931783680197
O          -2.92612972263869    0.34427780275041    1.19427672117217
H          -3.61863031430183    0.82694688960902    0.74018887970633
O          -2.17541485565383   -1.48221844821939   -0.52685058346304
H          -1.47499782909006   -2.01844053904955   -0.13273898980700
H          -2.69323654861397   -0.41499920254090    0.59084206987500
H          -1.67873876885505   -0.94171601026132   -1.17201987814776
O           2.67125402159682    1.07654248034750   -0.15540249437535
H           2.50701273365876    0.64773624502624    0.69323349643375
H           2.60885331871334    0.36274918440267   -0.82113160683303
H           1.29487779480092    1.96903359790815   -0.64817498065497
N          -0.56343421970249    1.52458449626890    1.53510613308071
H          -1.51958812701372    1.08714289286344    1.44517128573284
H          -0.23623554329680    1.86268528989322    0.54737273803882
H          -0.57854600918773    2.29520376441121    2.19382109500747
H           0.12094492726650    0.79960379008524    1.83404091110156
