    26
        -50.45730944  Gyration_radius:  2.4493101021 Dipole_moment: 7.988
 S           0.50427574267797    1.87912285391523    1.44148425496310
O           0.64266170164745    3.21578122771169    1.89921544617322
O           0.93716751796692    1.70724228635799    0.02017310087659
O          -0.80305134134286    1.26378492339940    1.62555649141207
O           1.50722650924782    0.94258765153474    2.24277952098792
H           1.06867911152666    0.07662077520194    2.18742095742254
H          -1.90052393207418    0.91088319377425    0.57924419568657
O           0.56147419516265   -1.55211499291363    1.74838133568865
H           0.31188676890932   -2.00848222704907    2.55250919077508
O           0.19787223027111   -1.18086380986785   -2.32597607130931
H           0.23718972508324   -1.40218440268863   -3.25653737365748
O          -2.57213025206117    0.60719173983223   -0.09615400617513
H          -3.42372862864676    0.89091770260780    0.23767722613735
O          -0.72678264261030    1.19921949653378   -2.00791368102409
H          -0.10466375529146    1.56514069748682   -1.34525990774679
H          -0.18966898920624   -0.24595215826472   -2.27354465674754
H          -1.55600303810542    1.07578627585962   -1.51435824147610
O          -1.32228393171156   -1.80869454370061   -0.03968116130897
H          -0.87292363609846   -1.78401013612873   -0.89724683258769
H          -0.22317053317985   -1.63149998264488    1.13080214902355
H          -1.89392790918984   -1.01698997047823   -0.02593360192516
N           1.95433312446390   -0.56681218259862   -0.38299061793190
H           1.43339311463139   -0.93190390226487   -1.20993346406556
H           1.56219140683968    0.46425558943972   -0.19866556226707
H           1.71519060461301   -1.12285806816668    0.44869983309597
H           2.95531681646676   -0.54616804689081   -0.53974851402489
