    26
        -50.46944051  Gyration_radius:  2.47851073389 Dipole_moment: 4.360
 S           0.66925750236403    1.88367852624195    0.54848912051696
O          -0.48110217532882    1.31084002759424    1.24029311668783
O           0.29600370105952    2.81167911468545   -0.48990228981695
O           1.59526957587507    0.84988217564309    0.10784658718512
O           1.46953233085969    2.72529724769388    1.63116213855773
H           1.05942563537996    3.58150997826916    1.56762931828425
H           1.33025000257157   -0.00216985187585   -1.19757467923240
O          -0.00377464238321   -2.70365468255263    1.67328609814960
H          -0.64900488730682   -2.88911010671032    2.35740414644145
O           1.12795948680575   -0.58771216477813   -1.97704704655282
H           1.97864836552827   -0.86048711947806   -2.32418513674126
O          -2.26807289694335    0.21781339432029   -0.37527342863642
H          -1.75273053314334    0.66892850701353    0.32762725535045
O          -0.94316176288521    1.36379423509692   -2.35975430823882
H          -0.23906630660712    0.73706990190854   -2.56589933221385
H          -2.01168549949460    0.69814701858692   -1.19869795649500
H          -0.52864673626227    2.03706984241663   -1.78398769627666
O           1.09005058050388   -0.44120264231144    2.41276518314948
H           1.76242723138307   -0.18940687619509    1.76630271118806
H           0.37124955616189    0.19060154604366    2.21468257699753
H           0.48895580882250   -1.89498712006481    1.98653115618067
N          -0.87384117318088   -1.92760007717356   -0.72098824911781
H          -0.06129078243741   -1.55984841214932   -1.25754718399325
H          -1.53781868344719   -1.07456090796082   -0.55220362902960
H          -1.34746748038517   -2.65585777217630   -1.24377158739818
H          -0.54136622749709   -2.28971378211104    0.21281311503528
