    26
        -50.46943966  Gyration_radius:  2.47848626466 Dipole_moment: 4.355
 S           0.62179173991183    1.85662302684804    0.67854723777661
O           0.63514334240484    2.76280820844913   -0.44286508411580
O           1.60024781723339    0.78118386232789    0.55433332173695
O          -0.70096708886485    1.33855820192422    0.99929118065167
O           1.05339816735471    2.71207322886659    1.94485635798505
H           1.62210577371659    3.37072488545701    1.56007479552431
H          -1.63744142210796    0.71130880853192   -0.10907457647428
O          -0.08668301697779   -2.78115727441540    1.53905757451344
H           0.69581893870219   -3.31421780273608    1.68832597081815
O           1.43992276560628   -0.56342490249974   -1.71800577775810
H           1.68266314910525   -0.09661574267652   -0.88951436670874
O          -2.19747489076146    0.25125279357640   -0.79188076313875
H          -3.10523515860331    0.38098516960663   -0.51304482873999
O          -0.20197349994614    1.34218594508487   -2.54361024498439
H           0.96464934328033    0.12380693632449   -2.24345960109128
H          -1.06594653062216    1.06767759696025   -2.21305011545764
H           0.12490413401757    1.99864455746511   -1.89655131968588
O           0.50295614438175   -0.45866789447403    2.59757324046992
H           0.08214143852059   -1.92314229478041    2.01878237445101
H           1.13947079006300   -0.10966615747059    1.94341873071334
H          -0.24755201442144    0.13951806256339    2.48626702147837
N          -0.59903153985048   -1.94070955269496   -0.93528927509718
H           0.30629173044421   -1.43931002377403   -1.29009895834726
H          -1.33470211797023   -1.20632597164057   -0.88255981370455
H          -0.87607088080060   -2.67916063217042   -1.57241640574381
H          -0.41842712387423   -2.32495301470425    0.03089330494058
