    26
        -50.44929251  Gyration_radius:  2.51713299572 Dipole_moment: 2.078
 S           0.16110816753153    2.29678290160781   -0.45171766526801
O           0.97861788386786    1.14184680479839   -0.81420158978107
O          -0.10858996576179    2.33588697666561    0.97053088016317
O          -1.02310343737511    2.41761255021131   -1.27345288208501
O           1.07396536917193    3.55614427307240   -0.77317817825581
H           0.51723772944330    4.28080170506679   -0.50813075934517
H          -1.65728843578757    0.93255205979493   -1.31198424124073
O           0.13698407298850   -1.26822935619868    2.20525175584411
H           0.24460453111809   -1.16212518635098    3.15181671031871
O           2.16529451243476   -1.75947308890458   -1.16007394213384
H           2.13529991028484   -1.05068450026409   -1.80938884893745
O          -2.10131721515505    0.05491719376736   -1.20639174404414
H          -2.96306238313453    0.15178060613648   -1.61646820311654
O          -1.73330615370198    0.33511158776008    1.48965278714850
H          -2.01290641678378    0.12974606101460    0.57922104810381
H          -0.63926587829204   -0.67062298223684    1.94854268404594
H          -1.20947854030522    1.16249007803846    1.40830519803237
O           2.07629094579075   -0.29678452148109    0.86076307031398
H           1.63072524445398    0.44546583528238    0.26530971527205
H           1.32124545881577   -0.69318580570467    1.43783717599869
H           2.26165095465874   -1.00597911188591    0.09840575219247
N          -0.35247347888450   -2.29945199255149   -0.68870126395807
H          -0.79527103556496   -3.11606314659691   -1.08944481372622
H          -0.88599346154684   -1.48224863355734   -0.97696784958875
H          -0.42549031714369   -2.36867312793044    0.32012006169139
H           1.20452195881376   -2.06761718954127   -1.05565486771662
