    26
        -50.45406756  Gyration_radius:  2.52313966824 Dipole_moment: 5.855
 S           1.87778962569938    1.24045300928943    0.39262012952366
O           1.62095871277192    2.54242738494196   -0.16176426394222
O           2.55898791409708    0.33347526619809   -0.54086295849080
O           0.73222134889477    0.58507959003363    0.98875691779323
O           2.91504732416555    1.47253084275656    1.58689597910615
H           3.33230974030626    2.28767385944948    1.32748266786186
H           0.36117492090512   -0.86576684839640    1.47126343991691
O           0.18464844044712   -1.83607470532496    1.61849917091491
H           0.42470925133775   -2.01276427458652    2.52871012321701
O          -1.04983003535262   -0.73154499222512   -1.89254620936874
H          -1.65374349306728   -0.90658843416279   -2.61493070548945
O          -2.55546282925498    1.39837248084360    0.96392009384723
H          -3.34702044759770    1.87593933611399    0.71142425752810
O          -0.87989533655365    2.02288376053893   -1.02340585642482
H           0.00196751090110    2.29821088193494   -0.71584481929734
H          -0.77058725048108    1.15166847622694   -1.42686125938720
H          -1.85225276640975    1.69885778631032    0.33978687626470
O          -2.25633026612844   -1.17202718282356    0.34027800599571
H          -2.43972737583630   -0.25547880773437    0.65678985554055
H          -1.57318642268126   -0.88729927284366   -1.04025317212681
H          -1.54856195159211   -1.49797219830809    0.91420593782636
N           1.18907800290919   -1.78403785231294   -0.89673520163529
H           0.87445835602042   -2.07607688214896    0.04717421669291
H           1.68161344648029   -2.52377282313481   -1.38408391011593
H           0.34863900092012   -1.45505450563834   -1.42874162404613
H           1.82299456909348   -0.90311388500213   -0.76177767170676
