    26
        -50.46705724  Gyration_radius:  2.51879124049 Dipole_moment: 3.185
 S           0.71561588592677    1.59387619672433   -1.41466365664848
O           1.77259512954863    1.45634668412707   -0.41616915248989
O           0.04320783150042    2.86001559281216   -1.37966120666259
O          -0.18685642082545    0.44526526063014   -1.37633654711170
O           1.43781612969569    1.48888601306235   -2.83384408964630
H           1.62276543426408    2.39331994545458   -3.06769337414943
H          -1.19764086910685    1.41116175528534   -0.29344142534541
O          -1.71116409005800    1.74687393859653    0.46235097258831
H          -1.73582639509381    2.69720260621593    0.32354901676585
O          -1.45058549992057   -2.76236150323014    1.10951674007346
H          -1.51005372231176   -3.58622936834564    0.62394815199488
O           1.94579309848054   -1.11130938157624   -0.87681279451055
H           1.15409126638691   -1.00350777539790   -1.42254723928105
O           0.50310111342492    1.05403805998394    1.88852894009900
H           2.18868238255961   -0.17812515835626   -0.69735759472955
H           1.07712477190635    1.33551663542060    1.14518792556778
H          -0.39765780423886    1.31710294033677    1.61905208951139
O          -2.40348704556375   -0.89688433358466   -0.48714621083376
H          -1.63735223366644   -0.55251069159192   -0.97519030674143
H          -1.89398318753950   -2.07986912780350    0.54164628125624
H          -2.72444203545730   -0.14177137483857    0.01823997318860
N           0.88216226713550   -1.51727232862797    1.51798656162559
H           1.36412586918600   -1.47858936001346    0.57151973282694
H           0.67532384866614   -0.49878359104600    1.77814829614839
H          -0.01815844623047   -2.05062879426920    1.42696182162244
H           1.48480272135555   -1.94176285001050    2.21422710488876
