    26
        -50.46705762  Gyration_radius:  2.51872856958 Dipole_moment: 3.177
 S          -1.97714475244334    0.48836368005694   -0.95047117188748
O          -1.09382368846753    1.59865866722159   -1.29645708592214
O          -3.05864632136765    0.85309937814610   -0.08212890810332
O          -1.20581764493844   -0.66091108495710   -0.48160936797555
O          -2.62757987960433    0.00141188133916   -2.32415698893146
H          -3.45270001563565    0.47480334598898   -2.37065251396571
H          -1.47550458731633   -0.04105466108504    1.15125088573132
O           2.58434035881987   -1.75804279577557    1.09186114384802
H           2.92437174055524   -2.55112851920907    0.67541351545469
O           0.66338698697906   -0.04854449560546   -2.31335894578502
H           0.11991221925440   -0.75857539518151   -1.94371720271399
O          -1.37011652206203    0.30686131822185    2.05432175885082
H          -2.20109737767081    0.75615715967994    2.22928113577921
O           0.39816052309996    2.00586478556811    0.87001322511946
H          -0.11920474696054    1.48714476516401    1.51532873387771
H           0.08217422560497    0.73090493269973   -2.18390414529968
H          -0.17405124684027    2.05550666048361    0.07537505412390
O           0.00812407468417   -2.16713850913536    1.45772136533574
H           1.63613920741957   -1.95178989958159    1.31126034630695
H          -0.33012364951412   -1.61733715385984    2.17312976932985
H          -0.42717369356204   -1.82140550205214    0.66097510840604
N           2.24527904838595    0.52409056623259   -0.26365434338188
H           2.45729922796628   -0.34762993313770    0.28262903239360
H           1.72513553734207    0.26303476118452   -1.15298827710555
H           1.57243034243182    1.14539788343266    0.29228167043184
H           3.09623063387915    1.03225815416008   -0.47774377390933
