    26
        -50.46528505  Gyration_radius:  2.58600391145 Dipole_moment: 3.501
 S          -2.06920155772597    0.82030324910129   -0.11872337783478
O          -1.25284733051439   -0.24663756314744   -0.70316442621425
O          -2.23537776979312    1.94173150422688   -1.00561467647723
O          -1.59439951278018    1.14339443447640    1.21814305467632
O          -3.52219649039519    0.19697037112776    0.08199696846267
H          -3.98917255693157    0.51805825627401   -0.68308051606325
H          -0.96448547310467    0.19802120079893    2.45171869435560
O           1.61724064863167   -2.94720342500587   -0.92757264315239
H           2.40220268631084   -3.36218613932038   -1.28499908285491
O           2.14965330117221    1.01012909466298   -0.46376509486227
H           2.96325669850484    1.51440295331843   -0.42599871282209
O          -0.53107829094265   -0.47046924081464    3.02892892834675
H          -1.24281206919193   -0.93862158043897    3.46729994412187
O           0.15818539529861    2.67996143237274   -0.09002575257381
H           1.41408266666704    1.67295638767480   -0.38005812545982
H          -0.56609528979522    2.67899876726662   -0.73738975947961
H          -0.28225886795225    2.34779933318544    0.70761493254229
O           0.91551009479048   -0.76908242680751   -2.32053523913336
H           1.46378801726704   -0.09419401250590   -1.89489072436514
H           1.34066158651260   -2.26063494077594   -1.58098070987078
H           0.01642937051050   -0.59994668756471   -1.99711923886157
N           0.78128840593026   -1.02429268328306    0.75742732728605
H           0.50311374709828   -1.01110543462540    1.75624594925128
H           1.13472893363569   -1.93314817269396    0.41041378536477
H          -0.08444807501877   -0.77583718712780    0.19541529676224
H           1.47423172179447   -0.28936748030107    0.53871318883571
