    26
        -50.45966314  Gyration_radius:  2.5939305618 Dipole_moment: 3.948
 S          -1.08183376617647   -2.07952441592107    0.64756846741193
O          -1.88914800974192   -1.07053567157931    0.00166118654543
O          -0.36047913450735   -1.52220430146867    1.79062534433301
O          -0.20764898223763   -2.81394243165687   -0.24740238510571
O          -2.09050197359525   -3.15606312859649    1.24277913967379
H          -1.50822510934762   -3.87563806240759    1.46560144168894
H           0.84253808431586   -1.85094713416279   -0.98166633451078
O           1.96566612686665    2.00591091157031    1.78395082186157
H           2.24106958011688    2.92237868589071    1.82932617175964
O          -0.81235187422223    1.94812754698227   -0.98277519657468
H          -1.53756827744362    2.52446281056120   -1.22584870178868
O           1.42082701364185   -1.24244177232859   -1.50975009630128
H           2.09992514944986   -1.79682453659914   -1.89717881673893
O          -1.02342810146056   -0.23415470431732   -2.34491508735122
H          -0.90915713115281    1.13365601038801   -1.56901904999042
H          -0.12598557346130   -0.60322606541922   -2.33445261947406
H          -1.48253677287820   -0.67544230748441   -1.59925014058969
O           1.94462885516462    1.36372218420007   -0.76958048185883
H           1.87247473919359    0.41736909944438   -0.98333742934979
H           1.08518903514773    1.74086575544853   -1.00254583291482
H           2.12883711397108    1.71519233392707    0.85028344966102
N          -0.52571441710237    1.04389814820831    1.57388327871577
H          -0.75498506347110    1.30025533832520    0.58574191510711
H          -0.46235355149724   -0.02660252727318    1.66271994857767
H           0.41488818214304    1.44815622525379    1.80958870673062
H          -1.24412614171991    1.38355200901752    2.20399231048391
