    26
        -50.46306541  Gyration_radius:  2.54540985449 Dipole_moment: 3.931
 S           0.03290741561719    2.23899079886350   -0.22428282237484
O          -1.33435578678156    2.00245629003359   -0.68703781698775
O           0.92942153408977    1.17406126058032   -0.62904202654639
O           0.07412254971170    2.51247079843302    1.19800923635083
O           0.53664342088333    3.54695190696466   -0.95595526371673
H           0.03800035670139    4.21908577601093   -0.50362006577914
H          -0.25625998903373    1.26532666580745    2.27006932011646
O          -0.95958005558688   -2.07050307151548   -0.34168785092710
H          -0.92667480827603   -3.02541538388530   -0.27465696864664
O           2.63598303791499   -2.15824376722454   -1.00574412621725
H           3.47879144417728   -1.76081842415392   -1.22741051420854
O          -0.53297947067922    0.38814931625065    2.62355809136790
H           0.17522371627754   -0.21870773839668    2.36136229817480
O           0.70574879243230   -0.88877803129922   -2.38000707952250
H          -0.08315837089842   -1.29290272911396   -1.99692180518964
H           0.80551354861364   -0.03543959022179   -1.92050220217773
H           1.98505538563448   -1.77984878751040   -1.64340882607357
O           1.11091542913711   -0.99609048302125    0.86774263280603
H           1.80747591305259   -1.51419194492361    0.41031607834831
H           1.11222930676954   -0.13472334077445    0.39400279387854
H          -0.15616481826835   -1.72817602924615    0.14388584384057
N          -2.26913515512159    0.03907543994535    0.70588154639590
H          -1.97141062951417    0.85867551133542    0.08142387867701
H          -3.26332894657669    0.07239148630596    0.90112294163092
H          -1.99877290906438   -0.84630957458461    0.23505242040735
H          -1.67621092119455    0.13251364533757    1.59785029636911
