    26
        -50.46306753  Gyration_radius:  2.54487025765 Dipole_moment: 3.896
 S           1.30843831468641    1.43610142101118    1.13613773075688
O          -0.02334754121597    1.52663130263824    0.57039552064228
O           2.28769191056971    0.98843063797774    0.14640772077455
O           1.36504775776437    0.63520391889634    2.34248853303868
O           1.71964131059512    2.90614914643096    1.54820307534248
H           2.46880245197973    2.73958250180433    2.11033150826838
H           0.83477616698633   -0.95533359180819    2.28124343038033
O           0.51925068484281   -1.82047160407771    1.93073024810617
H          -0.39537791846293   -1.65723754595018    1.65612176963447
O          -0.43475015248350   -1.37918468600840   -1.79679947903094
H          -1.03435793671835   -1.94178904825233   -2.28816185504618
O          -3.33923692142197    0.67781819279551   -0.99719615201147
H          -3.77890683262859    1.44185374248569   -0.62251578030249
O          -0.95865074390666    1.45120440758669   -1.97670228831071
H          -0.56228415513609    1.66592518824536   -1.11287678621637
H          -0.58197694765464    0.59715280846764   -2.22403695720634
H          -2.55504474822491    1.03002745308095   -1.48144235543179
O          -1.52974748453925   -0.64264305032796    0.47621250188644
H          -0.99758181995080    0.16975685035006    0.62824595085227
H          -2.37133419788346   -0.30317972629046    0.10318049947230
H          -0.90359419485577   -1.14703512948457   -0.94565513815578
N           1.81220584911301   -1.50727464334250   -0.31513050424363
H           1.09640425877608   -1.56338532761371   -1.06533418444856
H           2.08791694479105   -0.47852088699371   -0.18778653049730
H           1.34320723765556   -1.79132630374125    0.60957452519105
H           2.62280869728154   -2.07845602789733   -0.52563499343073
