    26
        -50.46126894  Gyration_radius:  2.53157187799 Dipole_moment: 6.038
 S          -2.20204818952177    0.61179497095924    0.15244207694009
O          -2.01992120490246    0.89675701860487    1.55843964490082
O          -1.88525907159699   -0.77298198002967   -0.17756108484694
O          -1.52961265320258    1.55155970303626   -0.73287071099115
O          -3.75383100919010    0.79463129658328   -0.14404220225508
H          -4.16603454124816    0.34040954820174    0.58423227289400
H          -0.87404269153658    0.65005485112788   -1.98919616476694
O          -0.53223378652528   -0.19780076038860   -2.35261727797376
H          -1.03960511620031   -0.83101623946799   -1.81269109445728
O           1.75801496420904   -2.82614500814087   -0.22651325565404
H           2.39150257226412   -3.29586550866154    0.31684215282266
O           1.70647758995990    0.87638242402313    1.08784297305312
H           2.39713240590317    1.13343214611920    1.69997511773214
O          -0.14075385080542    2.67117077983139    1.22131149217373
H           1.01086379522578    1.60384422809556    1.13952193079242
H          -0.49393654559195    2.68335433841658    0.31691179624496
H          -0.82290831534287    2.13485887395710    1.67680854233940
O           0.14831268240542   -1.51651015018211    1.36232736645087
H          -0.68181490254626   -1.30875971165802    0.88615414650685
H           1.06684542239955   -2.47124832618319    0.39871996478884
H           0.58895288179826   -0.66616412352095    1.49690486576913
N           1.83956273215220   -0.40240908521115   -1.30256346775911
H           1.93308476918051   -1.40559092904242   -0.99559110951973
H           0.87280924017861   -0.30408561395216   -1.78835848418853
H           1.84256519631715    0.18494885044840   -0.44220237543191
H           2.58587761624735   -0.13462161303507   -1.93422712563282
