    26
        -50.45509198  Gyration_radius:  2.7015342418 Dipole_moment: 5.399
 S          -2.74237613134436    0.75762601630971   -0.16981067125723
O          -1.93116250998108    0.51070124002455    1.00084498720231
O          -2.62282965075690   -0.32929283386080   -1.14776672324831
O          -2.50011566588219    2.05476531310204   -0.77661059815195
O          -4.25818248870066    0.75783391297616    0.30881565235578
H          -4.73980390171203    1.04652361894221   -0.46191429397980
H          -0.88266530420600    2.23078144977466   -0.62940267013640
O           0.55615372942841    0.25750787460467    1.98598263710850
H          -0.38263260830263    0.38587803693497    1.74852711832942
O           0.06527802242791    2.08944587964762   -0.38293427890622
H           0.07300939091599    2.17674117727284    0.57618513148980
O           2.75050347567010   -1.51542713179155   -0.90140852797486
H           3.67397969554755   -1.76268572956707   -0.95636984242761
O           2.55098033495538    0.85401650799873    0.24621313910953
H           2.14939737115218    1.57669506470336   -0.24592249415532
H           1.93493519522845    0.67733707078786    0.98951267510468
H           2.74039145060177   -0.59821642588490   -0.52433094775037
O           0.93710084952462   -2.35984363716040    0.87524548849802
H           0.68079932569072   -3.27872387526247    0.79213461749142
H           0.65806743714810   -0.69300498075419    2.10004446543421
H           1.73110166959581   -2.22233589523822    0.31309708151041
N          -0.07143973712824   -0.53712558815957   -0.96181038742569
H           0.12487284508162    0.47120173062878   -0.71951561532190
H           0.15909722979185   -1.14776765343488   -0.15467640617477
H          -1.13152520653806   -0.57420076660962   -1.13701504389410
H           0.47706517223671   -0.82843037605620   -1.76711448271089
