    26
        -50.45730945  Gyration_radius:  2.44931083662 Dipole_moment: 7.989
 S           1.77737865304253    1.29429717602469   -1.01437027614033
O           1.77443819153127    0.71476993188613    0.36446850043705
O           2.77882033737558    2.28488777274426   -1.19087223751534
O           0.41975836227054    1.67353320449333   -1.38134952512880
O           2.10890263758990    0.04184582170324   -1.93441140949732
H           1.22989421725259   -0.34981624732104   -2.07309647518339
H          -0.81546961368473    1.96996875908663   -0.48134359834820
O          -0.95086932496444   -1.31291946414805    2.05338111550245
H          -1.20772615764457   -1.62100834404485    2.92261352482828
O          -0.23268082868166   -1.32793842097355   -1.99087454129320
H          -0.57417526054714   -1.42024603624162   -2.88083217262830
O          -1.63090238772582    2.07998258473824    0.08648639254761
H          -2.06065179933105    2.87653522670988   -0.22652264016519
O          -0.15372186202664    1.13100243909189    2.16687684971440
H           0.65954258508191    1.09823794701899    1.62137270716164
H          -0.78972311098010    1.62173414451450    1.61814070786248
H          -0.66840066422509   -0.34642667405990    2.16771861994578
O          -2.13758332312919   -0.55112988741466   -0.38474092230912
H          -1.91528102745081   -0.92161117023813    0.48200588542846
H          -2.09146631189666    0.41761380268046   -0.26992317847916
H          -0.98848396755582   -0.96776930263837   -1.44097881161036
N           1.09998979404879   -1.71700858230812    0.35990839265460
H           1.86060204660192   -2.35374457735204    0.56727245687706
H           0.70988741148459   -1.88917056134082   -0.57617152410830
H           0.33852635598352   -1.76769894716470    1.07134514290983
H           1.45939506758591   -0.65792062544162    0.36389700653789
