    26
        -50.45509214  Gyration_radius:  2.7020433061 Dipole_moment: 5.392
 S           0.66053855999030   -1.92461598168695    1.99696056231283
O           1.89815215676953   -1.15355486538156    1.83633054486544
O          -0.01629451171019   -2.11201226358309    0.73351847157924
O          -0.19152746157593   -1.36320343916397    3.03064143415595
O           1.09891724084773   -3.36516071770438    2.50574875304821
H           1.41366906735661   -3.20713664486357    3.39191168173507
H          -1.08924009639861   -0.27209713391399    2.21064955468518
O          -1.49530851928289    0.26446736657492    1.48507155116649
H          -1.99518023122186   -0.37833251928082    0.97069334353144
O           0.40814464607974    2.66816332754579   -1.84462595305210
H           0.22887894359987    3.39030887261880   -2.44738527697568
O          -1.32764303481773   -0.93484926360612   -1.29534509626092
H          -0.91850530945677   -1.47031457299675   -0.58824673674027
O           1.05867035556134    0.14822457061324   -2.46341267976844
H           1.92699970734341    0.03419652309948   -2.85072316717835
H           0.85957427364667    1.11041379755957   -2.46235649802910
H          -0.67696651707156   -0.91748844299353   -2.00468587838154
O          -1.87698689857562    1.69953591828088   -0.94319203208143
H          -0.47499666926968    2.38814100364359   -1.49107705101894
H          -1.80556663032779    0.74707235791401   -1.16841054619231
H          -2.05106338090320    1.72127730375724    0.00282682376296
N           0.88285761167941    0.60749937854349    0.26962746365041
H           1.23569201247507    1.56124086767127    0.27751536231746
H          -0.10111757944961    0.56875422823542    0.64954082084086
H           0.90299598182123    0.24554180951927   -0.70309334582153
H           1.44530626290115   -0.05607147038890    0.90151788382331
