    26
        -50.45597999  Gyration_radius:  2.65609256141 Dipole_moment: 5.391
 S           1.60092780828391    2.03302899111453    0.94331466628815
O           2.47161136789339    0.89637477218367    0.61987559427524
O           1.13301007482772    2.01704017355410    2.29725511875038
O           0.51210830942318    2.11528570847603   -0.03670069941327
O           2.48110889530078    3.33360888515840    0.73485150032793
H           2.75219140010284    3.29184328028197   -0.17842542814080
H          -0.68598789246564    1.40832599934301    0.84917255784340
O          -1.15876654512441    0.81745793543714    1.48404292987839
H          -0.92134601471111    1.19205608436509    2.33949946559410
O           0.58942999959113   -1.78078676255190   -1.57107810490455
H           1.42454005341578   -1.85301838064303   -2.03424792745638
O          -2.65305327313360   -0.18161855578260   -0.67704329301462
H          -2.46988525804002    0.26591899176733    0.15765023241264
O          -0.42399908900492    0.52319818629510   -2.01958570566677
H          -0.02991035699862    1.17338711346978   -1.40893068789620
H           0.20284230626043   -0.87596031106212   -1.83183921677086
H          -1.33833339359909    0.38001763650801   -1.68641886121624
O          -1.71292382752410   -2.79153468802137   -0.43901054581142
H          -0.92202535976121   -2.61227252161380   -0.97150183269114
H          -2.45523601897517   -1.12042651669014   -0.51714423870374
H          -2.26237012363305   -3.38470200230840   -0.95319732584681
N           0.76804188110673   -0.99664946595516    0.99586998129317
H           0.66530695572683   -1.44384757274552    0.05185388410777
H           1.56352594824687   -0.27436630146514    0.90601305389323
H          -0.09757123666969   -0.44642412456661    1.23272767232956
H           0.96676340945270   -1.68593658455861    1.71299721054141
