    26
        -50.45509216  Gyration_radius:  2.70199007772 Dipole_moment: 5.391
 S           2.76358730995394    0.39862001778968    0.57579187286593
O           1.83487935426506   -0.54654342268069    1.15348453298851
O           2.21279658239671    1.75819998252578    0.56613644590134
O           3.24603013068653    0.00519651947131   -0.73658924317047
O           4.03420676179708    0.44179513446214    1.52983078593533
H           4.66607513877813    0.96418917147514    1.04282499886949
H           1.91777045294079   -0.63963040583790   -1.43548878191812
O          -0.53122064562517   -1.79477849695243    0.90035368331729
H           0.36596791015286   -1.44444405067587    1.06312368947873
O          -3.05063794096453    0.86043763532742   -0.80194801089122
H          -3.96754652027492    0.80409704487920   -1.07227141878213
O           1.00500523384132   -0.99030369889547   -1.58761410026764
H           0.95453323832651   -1.76546636973046   -1.01819712036752
O          -2.04956414785931    0.51907435210433    1.65506600798243
H          -1.09767133665442   -1.33383304342828    1.52765450553340
H          -2.62036594193787    0.64670692311632    0.86553579367318
H          -2.27334113221744    1.20382087220500    2.28597850854507
O          -1.81156313045671   -1.37776689522424   -1.45583665779175
H          -1.06465336441729   -1.33711616917718   -2.06093852704808
H          -1.43086574349259   -1.66605117287568   -0.59848650634340
H          -2.62321754091470    0.02700312964617   -1.12750350825729
N          -0.11634392667367    1.06756986470205   -0.26167914202658
H          -0.68851807573356    0.76908529852825    0.55142046140802
H          -0.66232983921330    1.70342009671692   -0.83769789167235
H           0.79949443154698    1.50253290070517    0.09597408701245
H           0.18749272179846    0.22418480180140   -0.81892447505791
