    26
        -50.45509188  Gyration_radius:  2.70135892222 Dipole_moment: 5.400
 S           1.60785441131473    1.45655497652954    1.84803316023075
O           1.89788099887904    0.22078663537364    1.15648860621191
O           0.29056289712790    1.41746108160448    2.49250403081811
O           1.76243357452131    2.63511314560063    1.01338108704206
O           2.67110460856567    1.59053923847966    3.02200004308983
H           2.52200420408632    2.46779011695627    3.36479496884890
H           1.17794599868909    2.14000328367768   -0.42966753639955
O          -2.76046683117267   -1.18631342388084   -1.28064102308203
H          -3.37663667886039   -1.59244694284835   -1.89087571260078
O           1.24971485523481   -1.40868581879179   -0.87974795344184
H           1.60553075963326   -0.86748821060644   -0.14854706218118
O           0.81648349891562    1.58122029499809   -1.16203223246501
H           1.52571347398254    0.95815293138578   -1.35265673323750
O          -1.10110402926383   -2.41312572888580    0.42210329141978
H           0.77332553492346   -2.12703035655690   -0.45091045760504
H          -1.80150628084612   -2.17584668240761   -0.22488860209486
H          -1.52548097813992   -2.85940673280208    1.15533512228619
O          -0.60379768473761   -0.42350293348642   -2.59921143998185
H           0.11582406881888   -0.86822767174257   -2.10168198322153
H          -2.00483218117093   -0.86464632450435   -1.83656521964882
H          -0.36691000297929    0.50898007170950   -2.60318676902810
N          -0.92029597775410    0.35763674702205    0.49302016174459
H          -0.79495624908457   -0.67210007459296    0.53049136758019
H          -0.30908310116658    0.76849576750194   -0.26303085581944
H          -1.90003535348440    0.56772895024435    0.31919400428620
H          -0.55127356595716    0.78835768001168    1.40629773727754
