    26
        -50.45490209  Gyration_radius:  2.54694881208 Dipole_moment: 5.618
 S           1.21308419501716    1.95873595182753    0.51788717352067
O           0.95007688110456    2.75809057723769   -0.65076597323568
O           2.39286833145145    1.09490981992785    0.37024625993063
O           0.08402128768618    1.19778112789052    1.00948437789565
O           1.58724978330159    2.99224385521176    1.67514135447035
H           1.92039497342390    3.73261737552327    1.17787907143775
H          -0.25362971842168   -0.15806498000520    1.75001943791671
O          -0.32078312099554   -1.06787337758553    2.14905879633548
H          -0.59638298667716   -0.93682659112245    3.05699442873395
O           0.20739706082149   -1.44845872711431   -1.74574113447080
H           0.47003741272492   -1.67838019905888   -2.63765925845783
O          -2.98848942235700    0.52290144224657   -0.69218926984844
H          -3.68301592547621    0.35567560648571   -1.33099480077923
O          -0.59319182515230    0.96794137092872   -1.89969494366258
H          -0.04379938781627    1.66124330576479   -1.48761706524724
H          -0.09256427626113   -0.47472928367451   -1.79616593873550
H          -1.44756172845473    0.97867495284038   -1.41748002758157
O          -1.95733287641370   -1.87556624718101    0.02629177015308
H          -1.49058156864732   -1.66846805145084    0.85076037974226
H          -2.71592985262070   -0.35429051436059   -0.34542599377970
H          -1.27751197138670   -1.88727889978829   -0.66239838609456
N           1.74330797661614   -1.36706239630594    0.42386655373615
H           1.20849888302040   -1.49698731776963   -0.47340411364857
H           2.07500114636493   -0.32568805034183    0.42424605481346
H           1.08159522098893   -1.47550068042573    1.21256355647236
H           2.52724149815439   -2.00564004969375    0.49509768038904
