    26
        -50.45288153  Gyration_radius:  2.7180349863 Dipole_moment: 5.379
 S          -2.48160793367993   -0.14112406118204    1.43946650371153
O          -2.22589473552237    1.24301666368949    1.02616152565088
O          -2.02767477001724   -0.44711161625320    2.76246035304814
O          -1.94898888285320   -1.06609132305101    0.42753556303687
O          -4.05905264573674   -0.31419082257224    1.40819621867523
H          -4.31262499109323    0.00330931840209    0.54576202668268
H          -0.53825292253005   -1.55246794988870    1.24428048014996
O           0.27959458033002   -1.45350039403829    1.78210803591839
H          -0.07009349541419   -1.37234779288467    2.67686813592375
O           2.81913908930587    0.99729222418347   -0.60848700162468
H           3.74720594413499    1.05177900596179   -0.83924937066893
O          -0.29505084802477   -0.57184537725166   -1.61379565359888
H          -1.04359814769858   -0.85335524325906   -1.04992012691084
O           1.15722659028208    1.46439384391683   -2.71728383770787
H           0.60400586525586    2.17973948529515   -3.03313613823997
H           2.32437829591599    1.21665673504123   -1.42196929083979
H           0.57463830496926    0.69643965901930   -2.58925843089361
O           1.89280525335614   -1.67536206298168   -0.53976169185776
H           2.35957177607589   -0.82653127622229   -0.46635002234699
H           1.56512735981396   -1.88494884798676    0.34337439303963
H           0.43640531815263   -1.19891320777332   -1.41515187493448
N           0.27367287725978    0.93719891776607    0.53726215363328
H           0.49091337254990    0.13273762846999    1.16990755675103
H           0.17802207217422    0.52242727457396   -0.42600377871948
H          -0.70855054495955    1.27348627795362    0.79611498545130
H           1.00868317791188    1.63931295109411    0.56086929673462
