    26
        -50.45288164  Gyration_radius:  2.71724901472 Dipole_moment: 5.362
 S          -1.25237766236908    2.51456527753523    0.59129284135677
O           0.19940005533965    2.69607268624143    0.48412149778665
O          -1.71480847339149    2.29511366704919    1.92851765351222
O          -1.68990142635839    1.46424670061570   -0.34080926297223
O          -1.89434128241180    3.86707034208120    0.06440599338304
H          -1.46999569122736    4.01647863627523   -0.77614097497145
H          -1.89882737742824    0.20022279520833    0.77812148977225
O           1.94258397801913   -2.31697461574317    0.41991478685544
H           2.33877508997858   -3.18649130965736    0.48697785631660
O          -1.68521611089719   -0.37839881897673    1.54463980464048
H          -1.93753903451124    0.17147399667925    2.29524649805255
O          -0.22326864541976   -0.31342731316930   -1.69618035946389
H          -0.85248159284961    0.38747099221902   -1.43093376259906
O           2.37127104493225   -1.12043383381930   -1.99087072383069
H           2.93105529489783   -0.42533116450246   -2.33887949750620
H           2.18957079160966   -1.97404794224921   -0.46105553333050
H           1.45270039082809   -0.85097222994811   -2.16193104167372
O          -0.81790752613631   -2.44585400287344   -0.19319720294370
H          -1.32880960070696   -2.02576869350357    0.50942820056443
H          -0.62015109896988   -1.15760287405145   -1.38412924529722
H           0.08854712472352   -2.53937631454422    0.14321116693281
N           0.81301375933880    0.21719986694903    0.72768305625399
H           0.75439255792246    1.28551118095563    0.72756681261975
H           0.63798528598092   -0.06851754059239   -0.27064481421096
H           1.68004005748400   -0.18437848450606    1.07530830264022
H          -0.01370987822260   -0.12785098360504    1.26833642812493
