    26
        -50.45288166  Gyration_radius:  2.71793384729 Dipole_moment: 5.377
 S           1.17615048850501    1.40552717819015    2.21154231169369
O           1.32606825301163   -0.04081778378893    2.40610129267048
O           0.01895970448556    1.96173842340253    2.84525585972974
O           1.24590543492913    1.72135905295738    0.77670237487265
O           2.46182438548904    2.06258674782466    2.87066203044288
H           3.19150735098235    1.57939845260987    2.49252877546788
H          -0.41342466670618    1.95899445845524    0.48765804786957
O          -1.37942837776659    1.78035706764066    0.54092286461053
H          -1.60357626143512    2.11522942155653    1.41674424088170
O           1.11967031145883    0.07573356471953   -1.32639722730298
H           1.37924995089649    0.75393297231611   -0.67052611599865
O          -1.85516138716140   -2.00261323759675   -1.36457810486113
H          -2.47170768904014   -2.42868434205616   -1.96117566600302
O          -1.37269474767072    0.69278310815498   -2.07817254399637
H           0.35652951382548    0.45852684387953   -1.81503066492556
H          -1.72116546520513   -0.18821846575515   -1.86343497009138
H          -1.63305219500608    1.27429366755546   -1.35340512553850
O           0.75128759021922   -2.56484339172725   -1.92855785999165
H           1.08422898745551   -1.65161106268861   -1.90085478455061
H           1.44371201620566   -3.12109119991918   -1.56970291731769
H          -0.96544331420971   -2.30216338288404   -1.63546552122694
N          -0.45078433517761   -0.74524274263152    0.69533080943869
H           0.14588823314623   -0.66060434573491   -0.16834425718077
H           0.22780704147563   -0.63829306391938    1.51569533574300
H          -1.06175842183279    0.10401024923307    0.69967485346046
H          -1.00059240058117   -1.60028821001229    0.67682698200755
