    26
        -50.45288166  Gyration_radius:  2.71813885536 Dipole_moment: 5.385
 S           1.26115866175343    0.15421009406678   -2.57621971096311
O           0.12862646778462    0.11993013974371   -3.45159128220255
O           1.56999303428415   -1.13555854756409   -1.94918040099247
O           1.14861096941824    1.19313569293311   -1.54127088547475
O           2.53928855530579    0.52851625040302   -3.43972048757957
H           3.26875656383627    0.42762224777370   -2.83421881242572
H          -0.54736010285951    1.31701243978426   -1.48805884165368
O           0.96145382792713    0.92588516015210    1.11212109727855
H           1.22188642364225    1.17738124524156    0.20302663075065
O          -1.78615849401732   -1.19918577851338    2.16400452237013
H          -2.41855472504499   -1.32239935333109    2.87283542917167
O          -1.48049124241339    1.00582121757361   -1.47088058167692
H          -1.64223564289828    0.78632472702733   -2.39560520362696
O           0.78712654216742   -1.00447526758784    3.04012470037088
H           1.03217414636907   -0.21246993521068    2.53197100938807
H          -0.90548639078441   -1.18057650360985    2.58682033468187
H           1.56490051172931   -1.56277468857522    3.07151727222078
O          -1.64431025854118    1.49684077269712    1.31730596535778
H          -1.88182395365137    1.55897556595984    0.38405112736800
H          -1.88122642153184    0.59899803119652    1.60284115772203
H           0.11761358165666    1.40040161691586    1.28661465024890
N          -0.30061829196886   -1.05500145254156   -0.19562747709583
H           0.44697123282999   -1.31015179885795   -0.91732039565928
H           0.19086031693078   -0.44103963189080    0.50485132831996
H          -0.98674666445321   -0.43315138419371   -0.68255085066060
H          -0.76440863747297   -1.83427085958926    0.26415968483721
