    26
        -50.45288162  Gyration_radius:  2.71807525562 Dipole_moment: 5.383
 S          -1.02287244741433   -2.16438223588092    1.58757336485691
O           0.11032481421312   -1.53657764475726    2.27601250126900
O          -0.66417168698167   -3.29835602290294    0.79035079495448
O          -1.76547000961787   -1.14720965116759    0.82789874788698
O          -2.00126223582551   -2.65948846358364    2.73491774697634
H          -2.11621692112182   -1.89395822011545    3.29134988577106
H          -1.18710488176914   -1.51886288871068   -0.72803737719887
O          -1.06200475359550    1.35884489104448    0.21638572679678
H          -1.52664719106160    0.55697691235913    0.53026534281444
O           2.11841468913168    1.58789844412315   -1.51876509794849
H           2.58630680409711    2.10875482934120   -2.17249758668290
O          -0.52782782375735   -1.75172438045243   -1.42018374366265
H          -0.39929141284715   -2.69590988764830   -1.27373387243710
O          -0.49930392115765    0.92287595209950   -2.36285224254008
H           0.44922949231536    1.09951207381664   -2.24970121907463
H          -0.59621353845953   -0.03649088915546   -2.40132258720542
H          -1.12548393956924    1.33460868145463   -0.76494565193357
O           1.03635909995924    3.09108760603199    0.48078829022656
H           1.80976944198841    2.21914990877877   -0.83996420253480
H           0.14709655188091    2.69800525758538    0.46535993840256
H           1.23216267278157    3.29259234300271    1.39655724596754
N           1.04579725124436   -0.31032166204129    0.22635313314262
H           0.39563174622452    0.51774565552067    0.24936584458827
H           0.86998953890589   -0.83020784927795    1.14503064051926
H           0.68891875637125   -0.92732829396265   -0.53950553107361
H           2.00386988399938   -0.01723444550859    0.05329988836827
