    26
        -50.45406784  Gyration_radius:  2.52797283161 Dipole_moment: 5.863
 S          -0.94862069765238    0.08110788321293   -2.09104994854819
O          -0.94747285949949   -1.38729705106936   -2.03678197000729
O           0.06897693281734    0.61897982956270   -2.95361017440627
O          -0.98422036653411    0.63685853627540   -0.75447405338826
O          -2.34382327815890    0.47594622650684   -2.76323788687067
H          -2.10058775301003    0.56611242242428   -3.67906439874459
H          -1.60191138383083    0.26113519824613    0.64406928392330
O          -1.93095118563008   -0.13567709493990    1.49745692244667
H          -2.80432139362706    0.23123133231434    1.63891181881979
O           1.21071125723685    2.68701524701385    0.86249565526294
H           2.01110025377527    3.19792448666179    0.99165791620356
O           1.76692865615503   -1.14281056037896    0.89865875796009
H           2.59373774740192   -1.41882501124345    1.29533915862897
O           1.94675669411888    0.97952169144712   -1.05654485565561
H           1.31142461690744    0.91066836252968   -1.79142258439149
H           1.37668360850693    2.12817728747998    0.06586355412618
H           1.89505010008880    0.14635466561768   -0.56978358778979
O           0.63860048174430    0.60453945408656    2.41809247319107
H          -0.30511284594822    0.43716024860179    2.28197953763394
H           1.37751445188615   -0.43891920833177    1.51300838109882
H           0.82010149989925    1.44479541883519    1.93363913025941
N          -0.61639966984676   -2.20812378021279    0.35099809703218
H           0.37375012992876   -1.95037401975340    0.57515281531804
H          -1.23879555543169   -1.62229659756655    0.93790352153608
H          -0.78023524857030   -1.90438562380480   -0.68721967834331
H          -0.78888422272430   -3.19881932352384    0.47796213469790
