    26
        -50.44115766  Gyration_radius:  2.45463383942 Dipole_moment: 6.119
 S           1.00823754747980    1.31747189897654    1.54742713125805
O           1.55641279340929    1.87005060791136    0.31111023500300
O           1.88685774016675    0.45695905293197    2.27606734102569
O          -0.29360615210551    0.69889398371488    1.27711596639894
O           0.69370587424880    2.57759362080382    2.47322575459243
H           0.20832148498848    3.16521491486359    1.90057241676029
H          -0.32755226648076   -0.78139383325946    1.55745915241649
O          -0.51171143885342   -1.77867213287648    1.59364974571556
H          -0.98408722249612   -1.92446168440426    2.41503530447761
O           0.23617655855888   -1.20750938278617   -2.07202132374386
H           0.50665743494712   -1.92565034184396   -2.64544279431894
O          -2.64344013233631    0.75229882697420   -0.59556604676742
H          -3.19633195944505    0.97014066791181   -1.34908977446439
O          -0.35371507595403    1.60529538729002   -1.48912462841519
H           0.33758654714641    1.78249070732519   -0.81180114339959
H          -0.05635962409156    0.81013055130934   -1.94674799189811
H          -1.75557951054437    1.18426890722982   -0.76756090330258
O          -1.77007184733979   -1.60198405537690   -0.56812353157183
H          -1.30964515168351   -1.75322383838870    0.36039063803933
H          -2.20253569011527   -0.64609138154831   -0.51892114564085
H          -0.98029521981436   -1.48592066841029   -1.22139970403191
N           2.06469479510617   -0.83924645865483   -0.30285978512882
H           0.99408960556041   -1.08005496712786   -1.37407705404694
H           2.05081954990117    0.17148224488579   -0.15191716337198
H           1.81663491114222   -1.23772941738332    0.59698322158975
H           3.02473645859584   -1.10035319006626   -0.49438393717024
