    26
        -50.46163497  Gyration_radius:  2.55721881528 Dipole_moment: 2.281
 S           2.03162638045446    1.10164370475696    0.29755454050556
O           1.75474792235060    0.65368326055492   -1.06674160760562
O           1.76241401193860    0.04633054002428    1.24577463003578
O           1.39314413946940    2.37000105542808    0.59530272092545
O           3.59478001043695    1.38905791396113    0.36578989468192
H           3.65348077547457    2.26726830227318    0.00322377980008
H          -0.19102677415568    2.16943958804737    0.49903772043478
O          -1.16490695135601   -1.88321878633552    1.09848068896356
H          -1.26351055592398   -2.64367165954448    1.67190248013681
O          -1.04662915988382   -1.04981301633801   -2.86127274199062
H          -0.65458774332523   -0.28147514505694   -3.28165402333330
O          -1.16976063512218    2.01170913764572    0.52657252494921
H          -1.57653063351498    2.87936341581819    0.55333547055349
O          -2.35957110865509   -0.12801567119296   -0.76428756884712
H          -1.68009917793496   -0.69407506385043   -2.18695789912332
H          -2.19904234058554   -0.81668588093509   -0.10461425671621
H          -1.96545084895816    0.67978917743827   -0.39277847387076
O          -0.55311937070093    0.18689710815313    2.51081525203206
H          -0.94778397981819    0.91836022970805    2.00891107507781
H          -0.96531868748406   -1.10319331352138    1.70501438475181
H           0.38685492984165    0.17726475961141    2.23216709757303
N           0.64177780221460   -1.67681113318064   -0.92394053839465
H           1.16154949879588   -0.74119145332626   -0.89966604278471
H           0.04875936212353   -1.77675678345113   -0.06884810078198
H           0.00533961406736   -1.61402102995307   -1.76868495671998
H           1.30286351023461   -2.44187925676422   -0.99443606023466
