    26
        -50.45966305  Gyration_radius:  2.59344284946 Dipole_moment: 3.963
 S           1.62953625615119    1.79590514458417    0.17490917457321
O           1.87858910270692    0.74834270055260   -0.78812792938616
O           1.35730781889630    1.23854794153674    1.49892554691016
O           0.62418829424991    2.75944483743927   -0.23129927528553
O           2.98441798262434    2.61815967879587    0.31153004814557
H           2.70431352126044    3.38896827134334    0.79521096508098
H          -0.80260476055378    2.06294303201322   -0.45324913988451
O          -1.37062609690922   -1.86505401914591    2.39445159212391
H          -1.76853077691205   -2.72746982900639    2.52011018996716
O          -0.06932286312185   -1.92799894174946   -1.30455177382951
H           0.36508924818380   -2.57798390926630   -1.85773661572727
O          -1.65581866875525    1.61572629686554   -0.68869326077310
H          -2.31672180032116    2.30941586936908   -0.71455800906093
O          -0.04332594396169    0.33468514538250   -2.54685616413797
H          -0.76207661369225    0.83795894159506   -2.13251840716154
H           0.76397519325209    0.60976386808507   -2.06311705426095
H          -0.07730550499722   -1.07780304738882   -1.84612022007636
O          -2.30827273439226   -0.94276502249485    0.11315513791682
H          -2.15114599925723   -0.00167983266138   -0.07707813638298
H          -1.71996075198562   -1.42255332405801   -0.48574762623488
H          -1.85478755968483   -1.44619033893334    1.63751947786658
N           0.92876667018329   -1.28235889091257    1.14955750846888
H           0.11937606425255   -1.56027728439300    1.75899000074887
H           1.11100724572970   -0.23168369781990    1.29218043345257
H           1.76888244768014   -1.79675679084963    1.39056138673335
H           0.66505025932779   -1.45928679886307    0.15255218016456
