    26
        -50.45514051  Gyration_radius:  2.75127811054 Dipole_moment: 5.667
 S           2.66498323912255   -0.68732019251555   -0.91826877418422
O           2.69974294354079    0.75336527263898   -0.63626247045925
O           1.53343996438325   -1.06653448371379   -1.72543580400888
O           2.79033530392334   -1.45579003752060    0.31269173660210
O           3.96997352273257   -0.99029026680198   -1.76887991451722
H           4.66743404341138   -0.73619671001067   -1.17203443508957
H           1.54927740432604   -1.31587957094582    1.27330741358645
O          -2.32233592314165    1.21674776598596    1.39592837152793
H          -3.09872693707097    1.41796856926691    1.91900791816481
O          -0.97126091568555   -0.31230047966558   -1.50574895089823
H          -0.10261984984685   -0.67405909058341   -1.78557452277360
O           0.79148690045302   -1.10481719068452    1.88954737551939
H           1.11064715415607   -1.30881988855382    2.76971743897273
O          -2.78687588363983    1.67361305107267   -1.23191523362967
H          -3.62109242178442    1.45983234802372   -1.65224884213621
H          -2.53926103736558    1.46257517106937    0.47142595452683
H          -2.14512310179344    1.01419341833556   -1.55550700088089
O          -1.74282853902131   -1.45027808487052    0.77540118517821
H          -0.88378693798153   -1.62058938306459    1.18841034099620
H          -2.03264588164920   -0.59473930325420    1.13569018904567
H          -1.32525652829712   -0.94470287549451   -0.83754997678814
N           0.34980838918670    1.08463343227137    0.34513414894607
H           1.34468093510163    1.11133203537125   -0.05707304426221
H           0.36955210121966    0.41101481615072    1.13435227840359
H          -0.00481345923595    1.98652826165048    0.64669419747333
H          -0.26473448498557    0.67051341579901   -0.41080955930488
