    26
        -50.45514046  Gyration_radius:  2.75126356188 Dipole_moment: 5.662
 S           2.58274792251128    0.96347732938211    0.90518909374710
O           2.76591720712197    0.59741423319669   -0.50507695626748
O           1.92110589075365   -0.06754413105717    1.66347511733393
O           1.95161656056053    2.27121496749995    1.01952954128781
O           4.04464525649397    1.11901404962693    1.50245992870348
H           4.40928264961781    1.82180375971369    0.97279677598061
H           0.45904561970525    2.29705232728058    0.51465976115098
O          -2.41142170717825   -0.64637423354053   -1.60937505557556
H          -3.28514966043374   -0.73527431321674   -1.99091196049440
O          -0.17767562451749   -1.50227634789597    1.01002173202721
H           0.62732858484126   -1.11653433144798    1.41853843411114
O          -0.44141214697629    2.28335735629433    0.08174850763859
H          -0.62937837869478    3.19368672408570   -0.15088535051767
O          -2.15068589816892    0.28681206078780    1.01613293503641
H          -0.92501438434868   -0.92045011057853    1.28333546401908
H          -1.64468096926626    1.10872130037006    0.93835470526710
H          -2.40029072176306    0.05514396824591    0.10517954651895
O          -1.46777482885158   -3.04946728004999   -0.79444426790469
H          -2.02567919309570   -3.70512626219870   -0.37345070944336
H          -2.10818209674283   -1.55444564820553   -1.39567128694203
H          -0.89529721454146   -2.69069057103645   -0.09089804417076
N           0.35228339916748   -0.00957320567173   -1.13809993931073
H           0.08616974202974   -0.33844061498227   -2.06066401396224
H          -0.14138040231062    0.87204210329164   -0.90173337540207
H           0.10272801765241   -0.72226767982599   -0.39631717698866
H           1.40115238644029    0.18872455989831   -1.02389342586085
