    26
        -50.45514054  Gyration_radius:  2.75149343056 Dipole_moment: 5.665
 S           0.71840965464880    0.21553297383726   -2.80314031067011
O          -0.39730779796639    1.14949845961466   -2.60495633190718
O           0.45250911910885   -1.08939133504599   -2.25339982936298
O           1.96897008995806    0.80228319590247   -2.34116234745830
O           0.85998156089493    0.04202524064618   -4.37417348572380
H           1.05298919504817    0.92927884816043   -4.66208977745276
H           2.03022057511703    1.00876894590271   -0.78025639242134
O           1.97275426253184    1.21788795978295    0.19515886567865
H           2.61481104079757    1.91253854197326    0.34797368594423
O          -0.60697224927745   -1.71275871833639    0.06601702927820
H          -0.24481723119278   -1.69620171370839   -0.84625663935735
O          -0.89267672320099    0.55594796643065    2.77735475312460
H          -0.98666772429752    0.68367617124063    3.72166559619256
O           1.25946949909886   -0.94551285978811    1.80419562948241
H           0.62115721767619   -0.39323120229320    2.28719312756397
H           0.17386061843644   -1.69392710524049    0.66744140158496
H           1.76657640057429   -0.32700378332253    1.25834244667830
O          -2.57051377800671   -1.37728799211985    1.89575372453875
H          -2.73818364844913   -2.17837456149897    2.39422187821520
H          -1.56779158253732   -0.10690436040209    2.51838657204080
H          -2.01651730837567   -1.64231949827957    1.13798418473038
N          -0.71740772219127    0.95042568290606   -0.06471387057874
H          -0.82336186310389   -0.09507940420889    0.06286484019517
H           0.22808995269495    1.21140424427016    0.27392645388634
H          -0.72061848236729    1.12619915237921   -1.12374670296438
H          -1.43696304565496    1.45252516117487    0.44541552873458
