    26
        -50.45514038  Gyration_radius:  2.75111655854 Dipole_moment: 5.665
 S           0.28520268714824   -2.62907615992962   -1.19319647150876
O          -1.04668163900802   -2.15428031962053   -1.58929251517849
O           0.53038681437075   -2.47597322893867    0.21825446579892
O           1.31475404232952   -2.03459665048058   -2.03467415553881
O           0.29745462546785   -4.18512874962769   -1.50456190221294
H           0.15438303918748   -4.20742984216417   -2.44601339190388
H           1.48304852081095   -0.48223296649245   -1.82191879559127
O           1.47129081862612    0.51245331220386   -1.72783573660656
H           1.85999149312246    0.85227462041021   -2.53504393257573
O           0.00383619200692   -0.42491361223047    1.76966682888052
H           0.23503390299892   -1.29760489373273    1.38418072287000
O          -0.70458441880825    2.83165635600875    0.55232003575753
H          -0.72824259833560    3.77346245209024    0.72348154664498
O          -1.74566177086247    1.44820580139196    2.63371760718571
H          -1.22250201113059    0.63959212237255    2.47923836960838
H          -1.58842091252324    1.69521854574325    3.54617506231387
H          -1.14988339847279    2.40017471056232    1.31237684706132
O           1.69706238342119    1.43559883120854    0.89467427670451
H           0.97164280628210    2.06662265428894    0.74879259072313
H           0.79730560551896    0.14587767179564    1.64190445114549
H           1.90749947675694    1.08505152774707    0.01692998839909
N          -0.99163171026149    0.22333310045684   -0.62048871811676
H          -1.17325125233323   -0.73903191089883   -1.06021291105750
H          -0.73216785332925    0.04370212850931    0.38988089712785
H          -0.15263348371938    0.60945791511404   -1.09359794939419
H          -1.77323135934100    0.86758659411464   -0.68475722050232
