    26
        -50.46433640  Gyration_radius:  2.51833046463 Dipole_moment: 3.776
 S           1.92860468595686    1.04693006056798    0.18526375444458
O           0.57647461240578    1.17915420713505    0.69798016941249
O           1.93564929855910    0.92614624316626   -1.27079473560618
O           2.67986856517576   -0.01311681694188    0.82235835455306
O           2.66438729217940    2.40300390093295    0.53401384544534
H           3.57382454890455    2.16974588705162    0.37993559190759
H           1.98347652338220   -1.55545974614873    0.79171624659917
O          -2.64679334769984    1.12035706505708    1.97862554460594
H          -2.15671063190684    1.69071394591340    2.57338924983486
O          -1.89249334680961   -0.73585757043391   -1.33579201350872
H          -2.71018063809459   -0.87358688637473   -1.81445177831074
O           1.35428569254666   -2.28300096686184    0.58682648576808
H           0.55034667240197   -2.06682277893591    1.09582741502697
O          -1.74220570393525    1.70628918571012   -0.53135512482490
H          -1.86497625011072    0.24760540493914   -1.10211327081878
H          -2.27283634284165    1.66053288941902    0.28964173210964
H          -0.81919124114697    1.71538684647838   -0.21347827934936
O          -0.90755265464627   -0.93669411494657    1.31310579325153
H          -0.32344181040926   -0.15899006051065    1.17581616098848
H          -2.16036693514864    0.27575639029895    1.95704488003536
H          -1.37244333137705   -1.06157239052734    0.47200028876105
N           0.71820148412020   -1.30601004470823   -1.74522112295859
H           1.00660548924058   -1.79533595474013   -2.58520879375924
H           1.22300256839550   -0.36672883669369   -1.65951704679807
H          -0.30954071610088   -1.13561629666976   -1.74027071699603
H           0.98400551695632   -1.85282957216791   -0.85534262981928
