    26
        -50.44448080  Gyration_radius:  2.50716909693 Dipole_moment: 7.755
 S           1.39317658300125   -1.47922962368868    1.59545231752632
O           2.72773948970895   -1.88038169616556    1.89495366922073
O           0.33267599149760   -2.44588076242534    1.70862620717680
O           1.35907174591540   -1.06489395943823    0.03685299391047
O           1.04490918413430   -0.20225381496391    2.28697355057643
H           2.32081112031570    0.66507046096837    1.57443171363644
H           2.11346656149856   -0.46793187408491   -0.05869245701145
O          -0.38663722537428    0.06993057830846   -2.24952611939173
H          -0.27245852350971    0.00374128839231   -3.19759474658267
O          -0.92796500434365    0.74952272475719    1.18875938460792
H          -0.12839018989470    0.36165544987222    1.79732388625112
O           2.90692712189645    0.95952907873485    0.84465844374811
H           3.79482163932597    0.71765894568440    1.11558539361811
O           0.56126453121480    1.89701234807291   -0.52092414880511
H           1.45508604605167    1.76206424121111   -0.17730814907198
H           0.41972368433434    1.24555924970930   -1.23948297075035
H          -0.40806727417466    1.32257218464877    0.50073350301396
O          -1.37014455723973   -1.44508994456892    0.02766175092039
H          -0.80008309881869   -1.34157975196950   -0.74910061341446
H          -0.82795507175945   -1.97454694304053    0.66919770641644
H          -1.24040706457563   -0.11389198209425    0.68683357261503
N          -2.94127182815242    0.58091811056439   -1.53976396504510
H          -3.69700251636064    0.61742535515036   -2.21198236148268
H          -3.00992554203039    1.40000783759414   -0.94828118363955
H          -3.08136053079711   -0.23513792634338   -0.95341942171569
H          -1.33800527192255    0.29815042511345   -2.08196793627358
