    26
        -50.46163571  Gyration_radius:  2.55602413817 Dipole_moment: 2.216
 S          -0.31329074132486    2.18904817182609    0.72518894607600
O           0.48168784236708    2.05159023106573   -0.47278276317869
O           0.11984842916218    1.23293775843536    1.74296915672416
O          -1.74851183845115    2.15197519304217    0.51544845466852
O          -0.01250894879795    3.63727143276744    1.31139227569629
H          -0.79881968352181    3.81581471893833    1.81735300869396
H          -2.12832305167920    0.68882197000862   -0.01052586952860
O           0.87077046500320   -2.40956944777986    1.96040936747307
H           0.34459859515570   -2.01828669703438    2.66101985515599
O           1.21776664115125   -1.09473721695017   -1.85629727368038
H           1.83111409990881   -1.16113989642135   -2.58856559187110
O          -2.33880304805369   -0.18795007812032   -0.42293773020540
H          -3.29283466889281   -0.27498629468764   -0.38679865818401
O          -0.61035802842101    0.63631719204581   -2.41856588719061
H          -0.23238793633838    1.32241636974271   -1.82883941496005
H           0.51036856238240   -0.43783542608243   -2.14641610196041
H          -1.38474187748162    0.30225896349367   -1.93761452385750
O          -0.66570969010781   -2.38071885166125   -0.18743013357912
H           0.24438891382063   -2.56471821210027    1.20822188297508
H          -1.30479282022298   -1.64761805674374   -0.19034821096722
H          -0.03358325860106   -2.17097345794634   -0.88846944548758
N           1.87690902058003   -0.33247827551906    0.66946669782882
H           1.67398710898396   -0.51411488985846   -0.33981717617458
H           1.19047099930870    0.39409736597341    1.05298518375469
H           1.67238613644473   -1.21568704943200    1.21789462184415
H           2.83036880759194   -0.01173551699487    0.79305934990704
