    26
        -50.46365338  Gyration_radius:  2.417751085 Dipole_moment: 9.108
 S           0.92897440845876   -0.14627683322812    1.74692856230393
O          -0.46041652786781    0.18917035112601    1.43746775562578
O           1.48495264633410    0.55181528976439    2.85407991945723
O           1.75221013312508   -0.00966446335777    0.51365048324495
O           0.92902702556799   -1.69150062831298    2.04975495377780
H           0.46779871539468   -2.10198871412913    1.29554453402651
H           1.96016052097524    1.71428799997911    0.68075800458924
O          -0.43488122951153   -2.76802902288673   -0.08115815686713
H          -0.74496103464127   -3.63698531195664    0.17808643307965
O           1.76982472200787    2.64233769820725    0.89602760341361
H           1.75545297173383    2.65494861645060    1.85753808012914
O          -1.29295992293406    0.90172243698891   -2.00606267042628
H          -1.52557869796788    1.45810528255851   -2.74995844710668
O          -0.78158032419106    2.39309608417794    0.02752251534093
H          -1.10547545624341    1.53320556731579   -1.23722172333409
H          -0.81107597255867    1.66585176560403    0.68328400165032
H           0.11635726885731    2.75653456590262    0.15215664112663
O          -2.28550147013526   -0.96158011222006   -0.06213902265017
H          -2.25434538998084   -0.37097450970488   -0.82683839348963
H          -1.23615467217097   -2.16219007074908   -0.06483628819339
H          -1.78277045350054   -0.48693406601752    0.63437443300697
N           0.70902244540142   -0.83529978804278   -1.63341634336808
H          -0.06360675182194   -0.17409623139482   -1.89192284891325
H           0.32513198757716   -1.75039114230542   -1.36390728156249
H           1.39205997240454   -0.92167611658577   -2.37753677573655
H           1.18833510562811   -0.44348864712313   -0.71217599909312
