    26
        -50.46365348  Gyration_radius:  2.41774054167 Dipole_moment: 9.111
 S           1.08051085477273   -0.91883546086948   -1.38742761814026
O           0.62390719809250    0.46817619066150   -1.30707313093257
O           1.10319057657529   -1.47073403577071   -2.69780321259179
O           0.29638267789607   -1.74872435181785   -0.43153098418549
O           2.54029654421795   -0.91382147591179   -0.79709933719681
H           2.47033712751259   -0.45666857945914    0.06085425607088
H          -1.05515366826669   -1.95882190350550   -1.51384218273359
O          -1.71657485836163   -1.76950765569571   -2.19980817118320
H          -1.20292185887539   -1.75058690660966   -3.01265564782777
O           2.27225433602643    0.43913500291257    1.58189220524802
H           3.13999812656568    0.75232778212053    1.84147337519813
O          -1.85592291537946    1.28051498099154    1.19293057685921
H          -2.72894948374467    1.50886035572126    1.51348308129758
O          -1.99389080331374    0.77740404264523   -1.32681247110977
H          -1.96479132598094    1.09592723491494    0.20347413879209
H          -1.02680495411150    0.81212541083096   -1.47937573502547
H          -2.22608419837844   -0.12057899391009   -1.63280387002985
O           0.76204995045831    2.28606321581070    0.58446551002980
H           1.77028644587877    1.23934642848200    1.23963435981646
H           0.74671977679316    1.78600747734141   -0.25996527454226
H          -0.15005883367051    2.24994286423082    0.90267669186049
N          -0.18886901009016   -0.71656570772656    1.82225177920695
H          -0.01221030400235   -1.19127365326064    0.83483636424243
H          -0.51974875648415   -1.40356036407637    2.49027159378284
H           0.72339218699955   -0.32970535389249    2.09733623593083
H          -0.88734482113801    0.05355342583775    1.68061746716578
