    26
        -50.45406787  Gyration_radius:  2.52776345045 Dipole_moment: 5.878
 S           0.15785634397984    2.04561220418364    1.03400586723406
O           0.07889180587809    3.01919806111698   -0.02183629774682
O           1.53606635490647    1.65643965613789    1.36310409786492
O          -0.67123300095460    0.87178363632816    0.85722427391494
O          -0.39686921861992    2.77566988791931    2.34329601960304
H          -0.21622586134046    3.68964389383059    2.14836902579299
H          -0.77073395496488   -0.58149650154809    1.45455880843102
O          -0.66136915540142   -1.50613718075801    1.81106671544449
H          -1.24848871379348   -1.56876422986926    2.56516637430642
O           1.30359715473533   -1.12062761518724   -1.51167351902975
H           1.67506661406135   -1.56379039891898   -2.27504329113436
O          -2.44448394957861   -0.21292573394731   -1.84442297145457
H          -2.76672437642598   -0.21311626143414   -2.74692769311417
O          -0.23150778783482    1.27126445127684   -2.04777998657745
H          -0.15598555860694    1.96525905068874   -1.36880650574260
H           0.43784810747191    0.60680649232236   -1.83769216036617
H          -1.70104095128814    0.43619968058803   -1.82697286016533
O          -0.95221995135310   -2.20976146449013   -0.91221302860977
H          -1.59747017767473   -1.54411855538648   -1.25020137514318
H           0.40970118253625   -1.56105760006557   -1.33384811058091
H          -0.98797505289059   -2.12427794545871    0.05142862543313
N           1.86436648261557   -0.85307542190223    1.08195765260195
H           1.80674059782446   -1.00367919549993    0.04688450271776
H           1.03273498886354   -1.29547800396349    1.51516710055216
H           2.73236174747498   -1.20526600548112    1.46910160416004
H           1.76709633037776    0.22569508951966    1.23608713160051
