    26
        -50.45966308  Gyration_radius:  2.59375150237 Dipole_moment: 3.966
 S           0.72200727352802    2.31227763427501    0.21170995572495
O           1.18429772752433    1.56198722412413   -0.93295135575489
O           0.99146033446194    1.59238687191774    1.45547348341130
O          -0.65615540789760    2.75613610307897    0.12293872111045
O           1.59896787433014    3.63822154195100    0.26973387079235
H           1.12749806755416    4.16341940856399    0.90881176559070
H          -1.67111139680792    1.52103692692621    0.00320896164483
O           0.06080488566217   -2.45352320792255    2.24882589495629
H           0.09558547213644   -3.40971240077088    2.29759502204550
O           0.48189799216131   -1.65410704853589   -1.56637745268627
H           1.02285362351968   -2.00451953191093   -2.27472329591833
O          -2.28622117568969    0.76337323595675   -0.17295882654136
H          -3.16761194490514    1.09438097198503    0.00662518661621
O          -0.69718334228633    0.47449337437356   -2.42737495007979
H           0.00836333324506   -0.85605090709225   -1.96031745258923
H          -1.46034593867018    0.57421494972053   -1.83637321897754
H          -0.00082062369852    1.04061503012305   -2.03225599813711
O          -1.62181321776933   -1.87165762790124    0.30850887903384
H          -0.69764410417108   -2.23585133846747    1.64866812144822
H          -1.91886020544261   -0.94732224032710    0.24671887286232
H          -1.02131016930564   -1.99373435389084   -0.43957158590311
N           1.59706130865211   -0.82335028827058    0.77944775591786
H           1.23396502889669   -1.02153680070896   -0.18160503567398
H           1.12182529469793   -1.47548852566682    1.45215651714812
H           2.60504837420640   -0.93142134721231    0.80673977915430
H           1.34744092605641    0.18573237567449    1.05734635480890
