    26
        -50.44484464  Gyration_radius:  2.47817831785 Dipole_moment: 4.677
 S           0.01296490412273    0.92142680488609   -1.11076190304957
O          -0.55654946321854    2.20352688430945   -0.80402889075516
O          -0.74236260752777    0.08717660287017   -1.99514689115724
O           0.22964199086171    0.17987614274029    0.24635345484999
O           1.44170651823929    1.06917827647276   -1.62206555169775
H           1.91447996399637    1.59609721855649   -0.87939350169794
H          -0.58679637618961   -0.31435893358803    0.54882949286833
O          -2.00807264709673   -0.91527843194443    0.96309219327451
H          -2.18326974413818   -0.71636935587913    1.88509646424547
O           1.91546564365824   -2.20561831155364    0.47039605667748
H           1.89159118937067   -3.02267573593449    0.97123003957654
O           2.22384127144061    2.26534402103970    0.44368110031263
H           1.34792756203438    2.59253229728516    0.66773124939343
O          -0.39881503333966   -2.39786805961993   -0.95398095938961
H          -0.48499991121958   -1.61962067238256   -1.52955592079043
H           1.13390945321066   -2.23153176334502   -0.12000135454434
H          -1.10687628707306   -2.31353412657107   -0.30629596865634
O           2.74757100522715    0.03705149925228    1.77086231660203
H           2.29913444947643   -0.68596122786277    1.28430809699387
H           3.68703201494463   -0.13127415503212    1.67097840544605
H           2.39611578872702    1.47365723048764    1.02138146355816
N          -3.12604490394391    0.91275659593706   -0.55243777666603
H          -3.11093996356103    0.48180012609412   -1.47010370783893
H          -2.55677913936195   -0.27128947906301    0.41465534652048
H          -2.37385770511742    1.60011063074644   -0.56330718684754
H          -4.00601797351903    1.40484592209474   -0.45151605722726
