    26
        -50.46163567  Gyration_radius:  2.55554978908 Dipole_moment: 2.254
 S           1.07159186136450    1.78483882092081   -1.03897363501249
O           1.62440027154697    0.45961012783316   -1.31471607675535
O           0.83752720268488    1.95493014742191    0.37591357307860
O          -0.06357211268264    2.09045642811616   -1.88925043916827
O           2.19674552458038    2.83374109364667   -1.44541455955004
H           2.05168192151531    2.93083859906570   -2.38118234275688
H          -1.21582074203000    1.02586870462632   -1.57368957883778
O          -0.71101555707963   -0.54116855859773    2.30953830610446
H          -0.75991772642565   -0.44773084247698    3.26122498979781
O           0.86368165258255   -3.07216325641021   -0.43493916005035
H           1.07682279010218   -2.86892826461384   -1.34826257216248
O          -1.95334564429352    0.41999391207636   -1.30491030167524
H          -2.62680919547977    0.50676436251975   -1.98164345847831
O          -1.64979943092838    1.58233201001255    1.18570298135786
H          -1.12332357056256    0.29563090000296    1.92752376059399
H          -0.76389055620198    1.92085297783135    0.93680358448034
H          -2.02305881210838    1.24513625147489    0.35526007155244
O          -1.49787437712066   -1.97529912000505    0.00548383705097
H          -1.40456273138415   -1.64393916859153    0.90914843385167
H          -1.66021616352366   -1.18754720774790   -0.54132321399292
H          -0.08838245092234   -2.82220940276535   -0.31897886629605
N           1.57898377461421   -0.89690713892425    0.88706033496676
H           1.61950055845106   -0.24766882571416    0.03687449638941
H           1.42877336863531   -1.86452490431841    0.48212436725207
H           2.43837524021783   -0.82919750812018    1.42007665261140
H           0.75350492443238   -0.65371016725483    1.48054881564917
