    26
        -50.44484472  Gyration_radius:  2.47821149507 Dipole_moment: 4.672
 S          -0.16828181624919   -0.96690242744846   -1.05691984505379
O          -1.18101858885297   -1.94832787316323   -0.78617699540247
O           1.18546770024651   -1.43128113408702   -1.04060691193205
O          -0.34081414652962    0.17204975067940   -0.00267766394687
O          -0.45544784086250   -0.23498063456881   -2.36325782567615
H          -1.40452289521785    0.13264327389701   -2.23441071270364
H           0.14656882943746   -0.01746086639931    0.85104872018366
O          -2.71806286692234    0.55135877261802   -1.60643658563106
H          -2.82912003378383   -0.16390206126594   -0.97358862599952
O           0.84516650664212   -0.53764596445100    2.19056639668322
H           0.26323338498015   -0.38071329631723    2.93692753337072
O           0.94222826585588    2.78784442111544   -0.30969468800336
H           1.34596313385221    3.43225511854200    0.27401471493012
O          -1.77782551127942    2.71430583789069   -0.40669973939846
H          -2.43496898954157    1.35475721907226   -1.09217302767462
H          -0.81164822614977    2.57936187175870   -0.31251106161586
H          -1.87554985635058    3.43966589538781   -1.02735647060649
O           2.53372549783632    0.61930600012580    0.12357015627877
H           1.50476183256668    1.98759438343885   -0.25380889163210
H           2.34634263319088    0.33843168150611    1.02577845088193
H           2.23406924213051   -0.11366183060441   -0.43972590441351
N           0.50226509651862   -2.98833457422662    1.31583575052810
H           0.77884656442552   -1.51879996859254    1.96803660223201
H           1.31647478960704   -3.13178292624618    0.72886374494241
H           0.32301051958188   -3.84914205593700    1.81935613980847
H          -0.27086322512759   -2.82663861272096    0.67204672984554
