    26
        -50.44835996  Gyration_radius:  2.45386380468 Dipole_moment: 4.177
 S          -0.13568056744954    1.10335543557064   -0.54694050190961
O           0.27186884312042    0.43817609393194   -1.74967475355931
O           0.54397795957786    2.32524220568954   -0.25261598085590
O           0.02722826033001    0.12751748672267    0.66177698256117
O          -1.65237594795464    1.28618803233325   -0.58880006921926
H          -2.03857706681763    1.44802775989212    0.36436917183813
H           0.93593924248821   -0.30426056201360    0.62746199081662
O           2.39133084482845   -0.85938902023145    0.50642355010508
H           2.87639315943039   -0.75133708371806    1.32714246111320
O          -2.11719213634378   -1.55585113141471   -0.55253333057914
H          -2.05841549407647   -0.66837974027554   -0.92092749212168
O          -2.66436326492280    1.44986505083936    1.69348355598139
H          -3.61402566767550    1.55107821228291    1.59219548167548
O          -2.17163626910084   -1.06980909631999    2.06526290074901
H          -2.26366928987452   -1.36793267702945    1.12736935623528
H          -1.22529071508003   -1.06659113004461    2.22840258969384
H          -2.50910611941918    0.48944508988944    1.95223418887427
O           0.44490115551163   -2.20866495668581   -1.26652442251029
H          -1.28574060749679   -2.00283705574612   -0.80160727011236
H           0.44605653826146   -1.31498490961273   -1.65058689681365
H           1.18437298626744   -2.22642885153548   -0.65218336273711
N           2.99847132320569    1.11910310813429   -1.08341800792517
H           2.70035922569696    0.82452437578752   -2.00621447892762
H           3.87957333630556    1.60989606536803   -1.17854302179518
H           2.29237118327046    1.78045013778177   -0.76179221132080
H           2.74322909793085   -0.15640282959955   -0.13376042925441
