    26
        -50.44835996  Gyration_radius:  2.45396950524 Dipole_moment: 4.179
 S          -0.08156091107644   -0.35707708358939   -1.18324624476166
O           1.05081701758257   -1.18938185315936   -0.90030334042631
O           0.01874775986021    0.44901615047119   -2.35872783697724
O          -0.36076364766447    0.56742037987913    0.04438004508612
O          -1.33263364362283   -1.23478480271660   -1.19471550631021
H          -2.19363737887049   -0.66478512158772   -1.06257462131056
H           0.49812199687154    0.99743672136169    0.34579655754928
O          -3.41169638054561    0.04743254067936   -0.65293343146622
H          -4.15179329693732   -0.56448893867027   -0.66668109177403
O          -1.05068075857126   -1.88781390561902    1.59606693785580
H          -1.01917573720420   -2.02062079226856    0.64311346817001
O           1.87580144387833    1.65323675376594    0.68079054528223
H           1.80501244033729    2.60865882715421    0.73265284013013
O           1.56499917476536   -1.09033093318192    1.74443349958249
H           1.55737287325253   -1.26796912891345    0.78810145416049
H           1.84170415127141   -0.17390790282313    1.83436253781766
H          -0.13621670588134   -1.67733194718154    1.86559627023993
O          -2.60769513775467    0.26263661168514    1.80411882041055
H          -2.11100313517863   -0.58993031227815    1.86191251698752
H          -1.92747094108421    0.93674605311341    1.73304582849775
H          -3.19422046920167    0.20518915849667    0.31721164007186
N           2.74141206766827    1.01312041484957   -1.69641751166633
H           1.83836053899317    0.96329284694014   -2.16697013698433
H           2.33406645947443    1.44323965224115   -0.19886791441661
H           3.06420523658589    0.05571664355661   -1.61700214406661
H           3.38792700306112    1.51527997766404   -2.29314319165853
