    26
        -50.44835994  Gyration_radius:  2.4539701537 Dipole_moment: 4.174
 S          -0.33718746448379    1.09872766244448    0.46182951868435
O          -1.52139517925145    1.42572964497905    1.19142667060253
O          -0.29307938930261    1.56227316397911   -0.89402520220030
O          -0.13890456147552   -0.45048441917754    0.48308843158464
O           0.92668912109074    1.57767389705602    1.17506762115210
H           1.11465234040917    1.01243886411527    2.02899464838235
H          -0.74392333842953   -0.87765467676822   -0.19870826884409
O           1.55623988078981    0.11424574298807    3.10413415083153
H           2.36012121802199    0.46545769550506    3.49496550457940
O          -1.76970961102510   -1.43093763054650   -1.23924639464056
H          -2.31841174452413   -2.11932464112135   -0.85768930685895
O           2.63237081776531    0.00303082553924   -0.52924692222976
H           2.20658086190540    0.79347740091041   -0.18179456609182
O           2.23675077731198   -1.75103777156960    1.43482779339593
H           1.83475010578491   -0.68108775399282    2.55332355579499
H           1.38283567219806   -2.08832648224812    1.15340221297744
H           2.53400126320645   -1.16971740648623    0.69270100565553
O           0.72121921936640   -0.39123997334535   -2.45081673278461
H           0.34488253338785    0.42801540379015   -2.08561992149118
H           2.12089756918581   -0.24791482380368   -1.32207914418068
H           0.02212805195630   -1.04806749843626   -2.38472884409637
N          -3.07528142262715    0.82615103161493   -1.13153608346141
H          -2.59813716983969    1.44395026973431   -1.77795981482930
H          -2.77875617663508    1.11644430330265   -0.20028464229961
H          -4.07154251910205    0.98868864227849   -1.21733088926330
H          -2.34779086567701   -0.60051149076811   -1.30269437038363
