    26
        -50.46422804  Gyration_radius:  2.57453703221 Dipole_moment: 3.119
 S          -2.17967153115156   -0.71699905962807    0.28585118945378
O          -1.98964975603777   -2.12114701653468    0.00033413284528
O          -1.34854525839911    0.15003096061255   -0.55430433736733
O          -2.02113934559642   -0.36348520202795    1.68274155328540
O          -3.68367083274629   -0.41004253112992   -0.11821705228375
H          -3.95581370775735   -1.26707647294512   -0.42940421703403
H          -0.60892874596105   -0.21733875904263    2.40498218289193
O           1.06665310636465    3.02584389190545   -1.37165433453580
H           0.39610454721777    3.67968335567194   -1.57218987133381
O           2.10958656285574   -0.94265469361271   -0.97826080469975
H           2.94008832137882   -1.41212806543273   -1.06081265332676
O           0.32139971681883   -0.18346868620042    2.75233354293739
H           0.25131445136848   -0.32541226101552    3.69722716484666
O           0.41228628638774    0.72441829181333   -2.57774632909336
H           1.07438191128498    0.07102392380019   -2.31437997655113
H          -0.37875771852635    0.49704507701734   -2.06267360481016
H           0.88667343841899    2.26027694517283   -1.97036549456601
O           0.55907145887269   -2.18157603443861    0.72113006342227
H           1.51169301803270   -1.52414836095219   -0.43533236596538
H           0.54800929842329   -1.64967507482095    1.52991994219369
H          -0.37352711776474   -2.27534400713267    0.43758790313731
N           0.91186918777248    1.05840074411049    0.41406434498460
H           1.05505383455270    2.01134657604888    0.02192939209565
H           1.59210946329589    0.41233689543413   -0.03060952877060
H           0.94924630072072    0.97350140812480    1.43506010522940
H          -0.04583687975755    0.72658817523839    0.09278904303455
