    26
        -50.44999833  Gyration_radius:  2.60237338495 Dipole_moment: 5.571
 S           1.50792052923008   -1.84610780629355    0.69650719349852
O           2.41156184955448   -0.81534446010710    0.19708823278972
O           0.25834081081572   -1.85949028114225   -0.06378258800812
O           1.35790313067738   -1.88729181822477    2.12380955448738
O           2.20424248058770   -3.23901893223141    0.29424559466197
H           2.63781256462058   -3.54201241815364    1.08760311349775
H           0.80708057461653   -0.23513247882930    2.08612568974935
O           0.39000412148155    0.61077440017700    1.87061680886813
H          -0.53308386291853    0.54959480321572    2.14906451260078
O          -0.63456029608218    1.56969127539380   -1.96543804377981
H          -0.80157876847921    2.27567558336072   -2.59047705348632
O          -2.45413023848853    1.14991958924216    1.61396233797772
H          -3.31950277423397    1.02136573921850    2.00224291801890
O          -2.04957426879904   -0.45489054493148   -0.47371946912817
H          -1.68895466045715    0.17376775325383   -1.11338069429337
H          -1.31389427504364   -1.03901763309757   -0.22109147433365
H          -2.38501442183535    0.50936921328660    0.86599795613150
O          -0.46706186591568    2.64071363253707    0.36335812818091
H          -1.31177272854999    2.44785900050723    0.80049962047679
H           0.15663256720875    2.06953156650534    0.84801402094379
H          -0.55361840362408    2.01591363272384   -1.05917659768069
N           1.16436159103670   -0.40255697854912   -1.95835518357241
H           1.88473721977328   -0.32367016638122   -1.16508237121487
H           1.57339267969396   -0.69252772815751   -2.83908576646655
H           0.58566510399466   -1.15512163940020   -1.49886844376647
H           0.57309135110257    0.45800667604009   -2.05067800615048
