    26
        -50.44835994  Gyration_radius:  2.45395595475 Dipole_moment: 4.175
 S          -0.90235795714622   -0.23418813219578    0.81518435833289
O           0.12671121162331   -0.81730023000629    1.62519301822956
O          -2.07462508798546   -1.03045109348929    0.63259448779082
O          -0.31199595961732    0.12932631968498   -0.58449384353015
O          -1.23007427273085    1.14896759821982    1.37645112686584
H          -1.70583484231966    1.74144651689101    0.66476068284333
H           0.20799557270268   -0.65351984007678   -0.94529954872494
O          -2.16609460504299    2.69331255361776   -0.35519627513955
H          -2.33644012081238    3.54133694640803    0.06220508294949
O           1.40696346858898    2.14664886479714    0.78965975709747
H           0.67851381252137    1.81976457640438    1.32758626516752
O           0.93032540168755   -1.95157227441224   -1.42890081608178
H           0.64015297534044   -2.20676233621583   -2.30708952518062
O           0.17180933474985    2.81568090546465   -1.47267016706377
H          -1.31285537777249    2.80278202859312   -0.87811840879523
H           0.71996464967498    2.70529960360715   -0.65763607013022
H           0.22433223180143    1.96678908544149   -1.91859289295544
O           2.51773608298465   -0.33697399155575    0.47583642168409
H           1.78159528157266   -0.61529073734279    1.04754153014250
H           2.43631291721800   -0.86383720339486   -0.32440224396003
H           1.99569662750592    1.38131993322184    0.64576335675679
N          -0.41580764399398   -3.33789590301618    0.32513000525522
H           0.48914735425068   -2.59297057014917   -0.77944185632481
H          -1.21613276180148   -2.71278545480087    0.41498579053681
H          -0.75661400380523   -4.28942651700494    0.25682519874829
H           0.10157572080735   -3.24970065869956    1.19212457549529
