    26
        -50.46313966  Gyration_radius:  2.55721936681 Dipole_moment: 3.433
 S           0.03141399140091    1.90176308340426    1.19661744367107
O           1.08381584946872    1.49415853441020    0.25558156588011
O          -0.22980535364359    0.85622503782409    2.14899469412431
O          -1.13544375802360    2.40388593922161    0.49366611052248
O           0.61005582913209    3.14382323053320    1.99092863256503
H           0.37642235115016    3.85846788794349    1.40820673501613
H          -1.76015930185540    1.26748893265448   -0.43257463399674
O          -0.24285377004109   -2.70535902857838    1.08178487228410
H          -0.58945514596782   -3.30311573689946    0.41792032010915
O           1.86642463572835   -1.34969774997889   -2.26866963229743
H           1.41172637668915   -2.01847826499600   -2.78204402029146
O          -2.09649979535606    0.51564011146326   -0.98913302350337
H          -2.92701677039962    0.81997477968551   -1.35990462948858
O           0.35962886401283    0.80109659418929   -2.24499794793123
H           0.70652367773416    1.22405629730287   -1.43740833145274
H           1.35522351183312   -0.50556653321770   -2.39590981975314
H          -0.56217398802471    0.59056427410276   -2.02271717605080
O          -2.08564206577470   -0.89973020503894    1.40070899779393
H          -1.51918841898365   -0.24085329145933    1.84926417025241
H          -2.23298089293123   -0.53362024124903    0.51268886622726
H          -0.99178618247970   -2.08207323324259    1.30754758598492
N           1.72397969464310   -1.05447262729680    0.38537617712193
H           1.89966294052924   -1.26561620021968   -0.63013392092067
H           1.44397678613499   -0.03357494430573    0.44453103429295
H           0.94367070856145   -1.68047566253384    0.73042407903180
H           2.56048021646911   -1.20451098371142    0.93925185082087
