    26
        -50.44835995  Gyration_radius:  2.45390474514 Dipole_moment: 4.177
 S           0.79522308689077    0.84621940276239    0.43085708379579
O           1.80065862534434    0.10492645935484   -0.27252772262510
O           1.09628940758401    1.16443745735847    1.79088446324729
O          -0.55401103764694    0.06098160311121    0.37953305251062
O           0.45475986683750    2.09103534161731   -0.38771994750871
H          -0.47147795110252    2.47991027126127   -0.11432222389572
H          -0.39467713659863   -0.90125894772746    0.62864656815403
O          -0.03779112376057   -2.35018728062007    1.09134930443100
H          -0.61067790625432   -2.64089607640545    1.80395839527210
O          -0.58138593989278    0.52131354290614   -2.56888191991833
H           0.04116873739942    1.07782579138629   -2.08982803098832
O          -1.85676940618097    2.93571296141349    0.06267262852962
H          -2.00564645890903    3.70670302397928   -0.49029788103142
O          -2.82477818039178    0.87319815461454   -1.17769520810655
H          -2.34126995955452    2.17279938197331   -0.38082217098528
H          -2.09102691344198    0.74622371283409   -1.82770666792385
H          -2.70092741707772    0.17456654286481   -0.53067128035718
O           0.60151597996488   -1.80796138624192   -1.74633735589550
H           0.25028275228968   -2.37046163910714   -1.05009058529407
H          -0.25382430373351   -0.39277807034825   -2.46728799069290
H           1.22407359763641   -1.20463350849058   -1.30522353385571
N           2.18540144574783   -1.45694052337969    2.12538743458677
H           2.84646146985396   -1.42796131797209    1.35771331037166
H           0.85952913436374   -2.13306967144497    1.51030794503772
H           2.67569444740895   -1.77778059774203    2.95180377104905
H           1.89320516322657   -0.49192460795402    2.27629858208629
