    26
        -50.46060084  Gyration_radius:  2.48586674551 Dipole_moment: 6.139
 S          -1.29488756615259    1.25478415203870   -1.25906846414375
O          -0.51250437040635    0.41785275737569   -2.15796176923136
O          -0.48807222634067    2.25006259023641   -0.56893499183634
O          -2.12542936766337    0.49414186739353   -0.34838740196833
O          -2.28548516595475    2.06494123515510   -2.20417914203876
H          -2.84578355352375    2.52377266333174   -1.58594904895126
H          -1.92391577237715   -1.17122275716515   -0.70451656405362
O          -0.74236977397502   -1.00427857587560    2.76033535653954
H          -0.50465815064711   -0.97071169650073    3.68781219972876
O          -1.36541051488283   -1.83572933727411   -1.16658060250148
H          -0.95024477751713   -1.26127210350352   -1.83924574883001
O           2.36950424872854   -0.23383076906001    0.33734205464981
H           3.32288233204473   -0.29924678801155    0.40298723034494
O           1.82823572636603    1.41876471851273   -1.57412415545619
H           2.19134321927941    0.38969748596208   -0.43419330584604
H           1.29828190887336    2.09653171255436   -1.12190488441854
H           1.13157096796919    0.94275835420295   -2.06849431019348
O           0.30355761679030    1.17333151892552    1.73628145536874
H           1.13408272221672    0.81248027187799    1.39700020094343
H          -0.11176828862944    1.62363251276549    0.97384603160965
H          -0.54143729093049   -0.10426160351253    2.39428220791398
N           0.44202374039684   -2.13617950371351    0.67194304569231
H          -0.29693925948540   -2.06335977537542   -0.12370274026006
H           1.22431275439481   -1.47844442271463    0.47757487863768
H          -0.03572264423452   -1.81597384609883    1.55591436072949
H           0.77883348571795   -3.08824066153611    0.76192410759357
