    26
        -50.46060094  Gyration_radius:  2.48580889158 Dipole_moment: 6.138
 S          -0.28770667510897    1.06421374328643   -1.90235928126627
O           0.51694220939148    2.01105516553956   -1.14471262754123
O          -1.60982488506713    0.85918680578055   -1.32739990855488
O           0.42002268961748   -0.17227071196083   -2.16276682073637
O          -0.55210215775737    1.74053968390980   -3.31783768085674
H           0.31634657061263    1.77296038510218   -3.70699069012244
H          -0.60886855060164   -1.47835256132307   -1.73823689145497
O          -0.38596474342489    0.49021691660292    2.32209900728865
H          -0.59164681216059    0.73446977087301    3.22517664933410
O           2.22036170331309   -1.99124452721057    0.53514136507428
H           2.99222357477718   -2.16510740726011    1.07541962481580
O          -1.42108265173574   -1.73809999595980   -1.24872554344508
H          -1.88832069331567   -0.87989212310330   -1.23962367101828
O          -1.27918602789366    2.36328404319056    0.78221313955426
H          -0.47769190386542    2.64663000755995    0.31084640904398
H          -0.77373167395734    1.22129800008246    1.74678836347991
H          -1.73303321147265    1.85572872940657    0.08031352149068
O           1.92519657491033    0.61398841055905    0.63442715932380
H           1.27490939126624    0.67813608497692    1.34728315315796
H           2.20659364153376   -1.01028867658126    0.38667995240400
H           1.53536865531275    1.10785459134996   -0.11436272408224
N          -0.36970496328770   -1.95672910224089    1.11454817695119
H           0.65729131160199   -2.10451920643536    0.92570137172192
H          -0.85821739035343   -1.89823485656866    0.14392506436581
H          -0.75419624148794   -2.71751663211998    1.66349982527768
H          -0.47397774084813   -1.04730653746270    1.60895304579477
