    26
        -50.46060085  Gyration_radius:  2.48583329658 Dipole_moment: 6.139
 S           1.86430826636279    1.16178277533178   -0.10045413893334
O           1.02656139719276    1.60896209788573   -1.20451322580039
O           2.34738987179510   -0.19993882715377   -0.27390329295720
O           1.25593039993557    1.36722044205989    1.19774884298642
O           3.14954637283241    2.09809817242906   -0.15008595306531
H           3.62581132828758    1.85272694937209    0.63714586709637
H          -0.25804479229405    2.13859031727364    0.96353200390982
O          -1.26477571001275   -0.99880233334209    2.56617811152749
H          -1.51667115569817   -1.78525524975887    3.05189605322115
O          -1.09816418403952   -1.61635688754375   -1.40142998272747
H          -1.49878828201202   -2.23062914791510   -2.01761630674918
O          -0.95605910898536    2.36325523890397    0.30836362306649
H          -0.42680010391907    2.33031875118569   -0.51239231408447
O           1.01240220362567   -0.64162222309658   -2.52963688489306
H           0.92329181825816    0.31459305922066   -2.34495715673825
H          -0.29974317311654   -1.23098304207325   -1.88084696770817
H           1.71516421202532   -0.88218252195561   -1.90268011855656
O           0.59069836664820   -1.82146416469800    0.90318445623903
H           0.05046619534373   -1.97024920761705    0.11507576675542
H           1.31043179455395   -1.22627754409225    0.61288450708246
H          -0.43112218820051   -1.23263252999615    2.08166053406765
N          -2.24971068346208    0.11358627138164    0.36655139181308
H          -1.75706766050324    1.08257830010271    0.31640833042302
H          -1.98624819627750   -0.30953502211219    1.29587197334903
H          -3.25478838605425    0.21826289467336    0.28371122404839
H          -1.87401862228229   -0.50404654846559   -0.38169634336757
