    26
        -50.45788884  Gyration_radius:  2.41144841835 Dipole_moment: 7.661
 S           1.78861345071889   -1.27054363333143    0.57954027588713
O           2.19371914883035   -2.60593063141357    0.86144278033281
O           0.64744421827000   -0.83382205737227    1.43945122755303
O           1.20922132524447   -1.20554972503061   -0.89512607228328
O           2.80895534119308   -0.23810279415787    0.57357157936730
H           2.24368148937797    0.79393650138065   -0.44670266016975
H           0.39425820461401   -1.75141135587010   -0.95609312331754
O           1.79976437160847    1.53703567407900   -0.95436530779693
H           2.47072048979808    1.89856879668818   -1.53461452582883
O          -2.12990521203032    1.45035084970219    0.23488500492751
H          -2.89399077844582    1.95803565479891   -0.03949877199774
O          -1.17948820952879   -2.26591254457044   -1.16966101153624
H          -1.21946380232491   -3.22283953053973   -1.13982906908132
O          -0.76390001732581    0.65311441873559   -1.84233917887516
H          -1.67283099194218    1.15286927710554   -0.60295652968547
H           0.17798807533394    0.81518981974910   -1.66046330136994
H          -0.85744576545668   -0.30319117257078   -1.92459292322602
O          -1.96273296666347   -1.24410514440283    1.10698662113587
H          -2.21408578106708   -0.32537238502882    0.93283635080894
H          -1.59959119169276   -1.94162640105807   -0.32554116484478
H          -1.03225758141132   -1.20493336044783    1.40806648338044
N           0.35492630353847    1.67091562152620    1.28887395698259
H          -0.64875276808698    1.79258564180108    1.06182087894597
H           0.52322114326114    0.57862054642156    1.42446500558094
H           0.93056739705094    1.92588916835325    0.46372562196773
H           0.63136410713573    2.18622877545441    2.11611786314440
