    26
        -50.45446023  Gyration_radius:  2.74355154956 Dipole_moment: 5.608
 S           1.72609324779679    1.26025437954173   -1.90204560054066
O           2.57719708424726    0.71267748361017   -0.83770051548675
O           0.62176131060074    2.02846887339263   -1.38639148841452
O           1.32861030879239    0.21287133904210   -2.83302801453567
O           2.64879709365284    2.25764008209772   -2.72171609929758
H           3.31724324654308    1.67673377963835   -3.07261635373163
H           0.33835220281924   -0.86200828860455   -2.23895803808135
O          -0.18557520172352   -1.57487156617971   -1.77454113718841
H          -0.08968593109123   -2.35968654218933   -2.31585986738881
O          -0.96857071035607    1.43049445527493    0.61534986907862
H          -0.47662438641952    1.84940861480299   -0.12399569395895
O          -1.23888146798855   -1.79510615320879    2.07499518264469
H          -1.86815025208880   -2.34460374874805    2.54379729286689
O          -2.35804392202148   -0.66996182426119   -0.26035720444723
H          -1.67393087617188    0.88291986843730    0.20191895997569
H          -1.79699440088572   -0.97373806228163   -0.98827481109181
H          -2.08395065308555   -1.18866726373106    0.51442172433714
O          -1.01038787194283    0.67514587627089    3.22052170109974
H          -0.51808132472586    1.25184364639950    3.80542490467536
H          -1.10563907727570    1.15141455474872    2.37619374978249
H          -1.18267028331174   -0.96233276967037    2.57886334548372
N           0.81147622443777   -0.55175207886679    0.53249260774884
H           0.10419501054877    0.21361610907281    0.72879606044076
H           1.02272266470562   -1.07784165933109    1.37458354545152
H           0.40371496137180   -1.17256417812503   -0.19269067630597
H           1.65702301354598   -0.07035493712840    0.08081654683015
