    26
        -50.45446018  Gyration_radius:  2.74330249251 Dipole_moment: 5.610
 S           1.44151475984910   -0.31673491918096    2.45131449683920
O           1.29535899338100    1.01697117442610    1.92645666648641
O           2.03112904335355   -1.24414027241545    1.47696238859982
O           0.21266558736380   -0.86708778241142    3.00697595993327
O           2.47636441173696   -0.23722072778299    3.65172705433887
H           2.48098088802787   -1.13214248167525    3.97816451036887
H          -0.98729166696193   -0.96982723794074    1.98793187922943
O          -1.66673008560759   -1.12349741088119    1.27166216829939
H          -2.25741250842395   -1.79482812513656    1.61597225474049
O           0.39868598502977    1.73842693087920   -0.43371491420078
H           0.78659015058487    1.68264383447680    0.46654655429185
O          -1.38293110966821   -0.39914595818092   -2.64470907870285
H          -2.03459283361003   -0.35985119276984   -3.34578154887591
O           0.69214547291832    1.32107435608702   -3.09838574693574
H           1.57951447640958    1.46272472219725   -3.42926330741030
H          -0.66239684142760    0.19932921454986   -2.91433421944101
H           0.66628741842054    1.69907864792089   -2.20103190376794
O          -2.18383959731908    1.07784530151460   -0.37641886418888
H          -0.57648392828022    1.78724160041825   -0.31100600050189
H          -2.07857104364870    0.54614281389378   -1.18306123124677
H          -2.19749080153018    0.44238770056489    0.35357305911066
N           0.39745550880462   -0.92708961521618   -0.47874532299689
H           0.43456679692801    0.12295369151173   -0.62139713588675
H           0.47705947982208   -1.41832405611759   -1.36352084915556
H           1.16477167864934   -1.16053942767947    0.23369192960083
H          -0.50735021486396   -1.14639077097259   -0.01960880850054
