    26
        -50.46911891  Gyration_radius:  2.4548380135 Dipole_moment: 4.007
 S           1.13408149470483    1.70159871555550    0.91374985203843
O           0.45558152522812    2.90258454548185    0.52156290653362
O           1.75903200557624    0.98576547190777   -0.20472822270521
O           0.31961877807264    0.78432377371076    1.69903047151523
O           2.33323322188734    2.15133902799793    1.85857924711277
H           2.34651349005527    3.09527374728073    1.73412688071833
H          -1.11621374496116    1.14244665174675    0.94187645844498
O          -0.15308778407827   -1.85323708112903    1.82040041153739
H          -0.01417012274297   -0.92450571791164    2.08011902179057
O          -0.53945466973912   -1.50692950711399   -2.17197503539538
H          -0.68138529347782   -1.74555608427388   -3.08820642044748
O          -1.88010473206638    1.33759614970462    0.35720714756141
H          -2.00436125359220    2.28694689361474    0.43032196651486
O          -0.35631537305203    1.05806440141823   -1.88243134910728
H           0.48923455446945    1.20841906192311   -1.42560766392139
H          -0.49690019525775   -0.50345626866945   -2.14272471475272
H          -1.03744238416873    1.26626365259026   -1.21373543750490
O          -2.19291878363817   -1.47165793964290    0.13492803336076
H          -1.01963859319483   -1.85183704131273    1.34928563561874
H          -2.34569631381083   -0.52150741064520    0.22409356063036
H          -1.76774412255004   -1.59420812784099   -0.72641405224133
N           1.37692747946578   -1.61056069532222   -0.25299682003216
H           0.75363713134460   -1.75467579127522   -1.07132361808054
H           1.61791917248462   -0.57772955631074   -0.21202035648706
H           0.80335910489548   -1.83014639054313    0.64532731120659
H           2.21629540814365   -2.17461448094089   -0.31844520390766
