    26
        -50.45966303  Gyration_radius:  2.59376380636 Dipole_moment: 3.955
 S          -0.77035808045727   -1.94294729201025   -1.24316816533373
O           0.35585660813967   -2.11177188189609   -0.35437061686578
O          -0.55286766120604   -0.82549877606722   -2.16063666541503
O          -2.05592361386212   -1.86190972144225   -0.57606322612813
O          -0.83570861116286   -3.25049707143148   -2.14650121994297
H          -1.69057452240562   -3.16897105208034   -2.55772856528015
H          -2.13079482149772   -0.61230734732722    0.42527486031054
O           1.76936772560553    0.30633164706699    1.48133885212957
H           2.60219239164357    0.02103134581635    1.85844261836080
O           0.68716964575157    3.07113617244076   -1.08031800526455
H           1.22356875274704    3.83171610287344   -0.85299443342363
O          -2.13902272625687    0.09765125903438    1.11767904387440
H          -3.06084809787963    0.23479618782762    1.34139404939097
O          -0.04711595550796   -1.40027942499208    2.15307387424307
H           0.06054441557169   -1.87416841504603    1.30141185630422
H           1.08597432562288   -0.35969940547966    1.80639940213981
H          -0.87783803313934   -0.90792724190222    2.05769987197246
O          -0.32735007918502    2.17804291013206    1.17923451984237
H          -1.04556865056107    1.52566579156148    1.10784556224717
H           0.43879452987734    1.67630590378692    1.48969221874161
H           0.16873904478127    2.84663049730261   -0.26556601120475
N           1.44722953731334    0.50602908385993   -1.21916220143874
H           1.57360551886510    0.28121776723908   -0.20510373438268
H           0.61575274270270   -0.05331707240902   -1.61086219626164
H           1.22369253873027    1.52903541036672   -1.30457362862370
H           2.28148309576975    0.26370463278684   -1.74243805999231
