    26
        -50.45872255  Gyration_radius:  2.5324920103 Dipole_moment: 5.623
 S           0.18416138195124    1.80312852591012    0.83243893102637
O           1.38615988895934    1.42888573930184    0.08069322914040
O          -0.74457715225510    0.69982303766927    0.91103388323402
O          -0.41321113743715    3.04416440268115    0.40657631296333
O           0.73339111770899    2.04193391895259    2.31291429757238
H          -0.01778601034596    2.40263311449563    2.77346102738561
H          -1.61387484180070    2.67591125140804   -0.70995093092220
O           0.64288796405945   -2.44181761152137    2.19323092873108
H           0.66935899672845   -3.38884332743822    2.33572755219927
O          -0.08919812928410   -1.72700480233106   -1.70730565204291
H          -0.05480191829770   -2.14902815043254   -2.56660261944169
O          -2.13592722077057    2.43139700087254   -1.50398346516635
H          -2.20097433224691    3.23123003014172   -2.02986530442995
O          -0.08460282691495    0.82218084542654   -2.13101868523270
H          -0.20001242752676   -0.74447506061720   -1.88964094062970
H          -0.93367676529302    1.29971541114556   -2.00939830908844
H           0.49812944851462    1.15901509780336   -1.43104168036763
O          -1.47626513780035   -1.85112728671673    0.77903481780350
H          -1.40884425903470   -0.88554244907183    0.89982209784013
H          -1.22005124569333   -1.98747003647429   -0.14336112998158
H          -0.24952831635377   -2.24417428492096    1.79231276714753
N           1.76709576745303   -1.13574610610281    0.16397438433711
H           1.14424157501603   -1.47217267788608   -0.60739696968445
H           1.63005654785116   -0.07368285512441    0.22182792235889
H           1.44646152187793   -1.59624930756370    1.05552625698063
H           2.74138754094233   -1.34268441958360   -0.02900874175201
