    26
        -50.45872259  Gyration_radius:  2.53224831279 Dipole_moment: 5.623
 S          -0.26793952787391    0.80509301942114    1.80440509609447
O          -0.50348923166581    1.19442331828710    0.43374476756711
O           0.52866428846544   -0.42389023351911    1.87450223123902
O          -1.45577991955848    0.78359929713835    2.62117470810147
O           0.70047840386724    1.90948593927723    2.43148359593775
H           0.14423122420529    2.67886743017272    2.50275032292638
H          -2.73102784849928    0.27686886748999    1.65166842072505
O          -0.06081450032560   -1.62495191625764   -1.80570751021534
H          -0.21673185319945   -2.44377862939009   -2.27781473204188
O           2.48811080987051    1.49649495513390   -1.65916552409784
H           2.97462706330495    1.53820851863604   -2.48344501717352
O          -3.38106749726273   -0.22637580981531    1.11586618834049
H          -3.99831756159836   -0.60662650883746    1.74433722619110
O          -0.05665506242865    1.19982938670417   -2.18571079227335
H          -0.36348009107241    1.35311375431774   -1.27258680970800
H           1.52128216260343    1.54216610143499   -1.90270856734831
H          -0.18660365743844    0.25072368230650   -2.31734267399519
O          -1.32633170197620   -1.81069576647931    0.43975853715696
H          -0.70705566072238   -1.41259949979115    1.07302729779496
H          -2.15548810733313   -1.29322194894424    0.53260681693432
H          -0.64672266003744   -1.66411348727295   -0.98959704355396
N           1.96323182376917   -0.71194719128487   -0.26743388751592
H           1.28176293105725   -1.15723462325852   -0.92599083843977
H           2.74708356527358   -1.32625805127263   -0.07366405326409
H           2.28300253810587    0.19175458608564   -0.70399104977062
H           1.42503008050862   -0.51893517025676    0.63983329044820
