    26
        -50.45490195  Gyration_radius:  2.54749620231 Dipole_moment: 5.615
 S           1.35581928410109    1.74743606274677    0.83237977299514
O           1.20182607516773    2.73171104796178   -0.20746810831836
O           2.46024142100831    0.81145440632390    0.57904137238795
O           0.14977985255581    1.02754072107332    1.18250361454652
O           1.78086847671935    2.55997814864430    2.13873553159138
H           2.18708014997016    3.33546111885766    1.76438302406922
H          -0.33254853078490   -0.38661530054659    1.70126026201252
O          -0.49258883947315   -1.33530363775308    1.95769059129311
H          -0.78949774484865   -1.31466195252918    2.86811282025024
O           0.14804771940557   -1.19326602499604   -1.93635288019484
H           0.42477959514940   -1.31204331114639   -2.84558711798974
O          -2.90487003865884    0.88269714154745   -0.68076336300159
H          -3.58547498624338    0.87403852711089   -1.35538215044556
O          -0.43538847152071    1.28248254041228   -1.74593096729257
H           0.15373567703162    1.85775540076835   -1.22230708461486
H          -0.06487742412559   -0.19983706618685   -1.84755410282141
H          -1.30408214993073    1.29946819380617   -1.29016567286616
O          -2.11037762371646   -1.67758908341174   -0.30079778273683
H          -1.65888401697542   -1.63467949152544    0.55642455168046
H          -2.72196423658766   -0.05679247858484   -0.46173957121714
H          -1.40880431519352   -1.65042887028647   -0.96682419369911
N           1.60242929031915   -1.56475421858081    0.25911279574692
H           1.09276644012351   -1.51627023183427   -0.66053342575738
H           2.02092570576638   -0.56768316871702    0.41942219136206
H           0.90474717590483   -1.72586118910039    1.00673782789598
H           2.32631152485268   -2.27423727406745    0.25560207511765
