    26
        -50.46709007  Gyration_radius:  2.46695599478 Dipole_moment: 4.124
 S           0.99090027031368    2.05011375633233   -0.70994175905315
O           1.26306196376026    3.44897766795125   -0.68148872534222
O           1.48337489964127    1.32231756582972    0.47021943119268
O           1.82407096970430    1.45078579985707   -1.94243460595441
O          -0.38916814577465    1.66831925925409   -0.98019488532719
H          -0.27308548576272    0.25042083886851   -1.74494549777156
H           2.50629801406534    2.10783724838835   -2.02148171743582
O          -2.41396509659405    0.79432664406093    0.57754032100114
H          -1.90136948646337    1.28320904444347   -0.09108375383230
O           0.12469637617659   -2.21216841482852    1.50213760283791
H           0.49631005736121   -2.99147464485493    1.91550662989490
O          -0.16690288622109   -0.64921267122275   -2.14109908084432
H           0.09255197752503   -0.50412056529552   -3.05180007160794
O          -1.99908171788386   -1.68593038014222   -0.31205656623594
H          -2.49106315038859   -0.12215900915993    0.21825900627919
H          -1.46457254285004   -1.47406244301200   -1.09211448639330
H          -1.38016805238133   -2.04515740585755    0.33967737266056
O           1.72612851957514   -1.23123871317715   -0.28009883162155
H           1.81670221443926   -0.29825875038223   -0.00304303622236
H           0.79036685245653   -1.91170785412912    0.81025057748531
H           1.16434830961557   -1.19134119036947   -1.07671568570577
N          -0.35743774620359    0.38960562661021    2.09268684393640
H           0.40832611651616    0.82761796560620    1.50480922559803
H          -0.35117802494580    0.76698652311585    3.03313993594322
H          -1.29209027704157    0.59535575793121    1.57430969379814
H          -0.20705392863699   -0.63904166580870    2.08996206272664
