    26
        -50.46709007  Gyration_radius:  2.46694716363 Dipole_moment: 4.124
 S           0.02422664460981    2.18112557837728   -0.96494369106806
O           1.22857306922554    1.59087022684712   -0.35979544584625
O           0.29957754370082    3.16993619436797   -1.95394033266827
O          -0.71505323311659    2.93847280860644    0.24026029325721
O          -0.89820691871068    1.12193993034019   -1.35311624079561
H          -1.63723816014920    0.70735930404147    0.02204142107253
H          -0.40453949796173    3.82560386196012    0.09894506631590
O           1.18322570168239   -1.84531113001426    1.53623428384126
H           1.65193238554916   -2.21983770825623    2.28208712301466
O          -2.01261782261643    0.42877142044351    0.89325116001400
H          -2.67532527415974    1.08463118221130    1.11326791510212
O          -0.56543176512589   -1.45495261701243   -2.08692635528697
H          -0.86683603071993   -0.52912298106490   -2.05878624682641
O           0.46344901347017    0.59799121449337    2.00056664106523
H           0.83041196057492    1.08338096897818    1.23560212279809
H          -0.49718292195591    0.57569008838636    1.83177303504617
H           0.91771219522953   -0.91308804683353    1.80553720877668
O          -1.36539974467090   -2.22659008142549    0.33793727259382
H          -0.99679088237459   -1.88605889006271   -1.31037482868816
H          -0.53245231760450   -2.28768419792561    0.82718938235969
H          -1.77851708332532   -1.39874992136149    0.62614284947849
N           1.70013187320482   -0.92080908757268   -0.95966610471737
H           0.82165422389011   -1.22413467147169   -1.52613376232788
H           1.58467559661072    0.11568072961710   -0.76914844957576
H           1.67943907978970   -1.41343731142537   -0.04451020063147
H           2.56058238495839   -1.10167687423439   -1.46349409629757
