    26
        -50.46709005  Gyration_radius:  2.46696330974 Dipole_moment: 4.123
 S           1.57443263065843    1.58549161589164    0.83421058870218
O           2.79616430142900    2.03120885332301    1.41770677456903
O           1.73843047657546    0.95557670338875   -0.48540250815211
O           0.69716092478128    2.89961906451441    0.55870258171893
O           0.72744722870806    0.74887065345781    1.67454558097069
H          -0.77654687352929    1.08026493837400    1.18775804682066
H           1.38383751919042    3.55489410284404    0.50997219620111
O           0.23897162136723   -1.90486049045283    1.76255868707149
H           0.43715630728736   -0.98816091983438    2.02559596013752
O          -0.97364736940812   -1.40408730081873   -2.06050685673540
H          -1.28131861160124   -1.59262895660701   -2.94710100965396
O          -1.67542771173285    1.25090973749332    0.81300330540052
H          -1.95200089254418    2.09456863051198    1.17286450663415
O          -0.63733652516895    1.13699312956919   -1.69585247268923
H          -0.89529220972773   -0.40340190755580   -1.99292501269298
H          -1.17845972141890    1.31481656500596   -0.90376360621257
H           0.28414498104162    1.19189810680291   -1.37445245426400
O          -2.09985441910575   -1.49282341967508    0.54768286493768
H          -2.17645090419488   -0.53846184268468    0.69722982354311
H          -1.87430054504275   -1.59392577715496   -0.38813646389809
H          -0.70770333397048   -1.88964531072879    1.48237270570931
N           1.28941311145878   -1.62894662461776   -0.58474010538676
H           1.56146310910352   -0.60466243713533   -0.55876366923560
H           2.08038759554515   -2.20605042331964   -0.84598809200448
H           0.91738628296402   -1.86878299915007    0.40953325619270
H           0.50194301734865   -1.72867370148054   -1.25610466768508
