    26
        -50.45646146  Gyration_radius:  2.53583096816 Dipole_moment: 2.889
 S           1.11116690244607   -0.02140933389894    1.79119740116668
O          -0.26675938126166   -0.45858765533562    1.53259425882531
O           1.94145949007493   -1.09055378976322    2.28576589378016
O           1.00097562342036    1.06378356213867    2.94426117657431
O           1.66391836976630    0.66948558183739    0.64455689233866
H           0.73111756918247    1.58783868686524   -0.25723693159999
H           0.84371775701740    0.54544367272017    3.72785312792594
O          -0.16871270363557   -1.82293081624851   -0.60269037577012
H          -0.34449427212274   -1.35272257796321    0.27702062239066
O           0.13715698433299    2.10798282633711   -0.85920601332863
H           0.66021684746979    2.84498802183732   -1.17699809282775
O          -3.26769451884501    0.27336124843072   -1.31980227560150
H          -3.94153921521165    0.87386915778356   -1.63928090164750
O          -0.80115067101251   -0.03725840734403   -2.24319253135161
H          -0.42431263543848   -1.11859896823976   -1.35102373290939
H          -1.77086532631051    0.01805709326987   -2.06957046085900
H          -0.42932884013241    0.77896881714570   -1.85171384812729
O          -2.03939785125029    1.42381086188500    0.74178556988590
H          -1.50982498429748    0.72549401343779    1.16692003239739
H          -1.39868590512366    1.93516894485009    0.22640745010931
H          -2.93202390578637    0.65693737739301   -0.47276290064704
N           2.32453266789906   -1.94987331075889   -0.31742605938883
H           2.86040602832877   -2.78254292868967   -0.52718216083825
H           0.91763723270840   -1.94587944667291   -0.58563036251023
H           2.34222965833481   -1.77549149230766    0.69413655126915
H           2.76025507946112   -1.14934116872429   -0.75878235924776
