    26
        -50.45646151  Gyration_radius:  2.53578291447 Dipole_moment: 2.889
 S          -0.77150131167833    0.63480894430386    1.85612095252189
O          -1.07793280154648    1.10392075143218    0.49867460119923
O          -1.93527663694022    0.12272096636026    2.53461960221479
O          -0.28983556182535    1.92224221165730    2.64970275554859
O           0.35468259713456   -0.27589105402360    1.85209804344223
H           1.55580683941631   -0.05021697936306    0.83566351530114
H          -1.09728527080989    2.39872171614357    2.81821363276746
O           0.76004615188140    1.06688567939606   -3.28306030231551
H           1.42906747709408    1.44684384684008   -3.85301184677479
O           2.27431485896765    0.04989050097186    0.15785971958115
H           3.08484592860026   -0.22705434659701    0.58694701710120
O          -1.38822243463749   -0.98766312604814   -0.90115047209703
H          -1.34555206447605   -0.07888727016526   -0.45598962500126
O           0.92957790415542    2.24845572433051   -0.90454414437656
H           0.12567982476455    1.99447698968223   -0.41654293548092
H           1.62453593639629    1.68090261085686   -0.54062118911449
H           0.74627434272016    1.61992968860289   -2.46371622966347
O           0.91922298741830   -1.16672957039148   -1.86211075776843
H           1.49314851505767   -0.81032655984395   -1.15401082751690
H          -0.43456108486159   -1.12804484683958   -1.33964830851317
H           0.87804910004126   -0.45001374644488   -2.53894448658571
N          -1.58421448594968   -2.29604358337505    1.23508559998374
H          -1.86242298500012   -1.51128119436093    1.83568638164534
H          -1.48855435848379   -1.65967370542105   -0.04453952057635
H          -0.66422244611061   -2.58649442030922    1.54295267774433
H          -2.23567101134166   -3.06147922738156    1.35426613675522
