    26
        -50.45646136  Gyration_radius:  2.53568771035 Dipole_moment: 2.895
 S          -1.24215574060459   -1.17502148459928    1.23125162843723
O          -0.88169267625074   -1.81688167936357    2.47026035536137
O          -0.98800984702852    0.27118128256235    1.25694214364180
O          -2.81303487650303   -1.32528778986291    1.06079444825750
O          -0.65290780319791   -1.78799027191667    0.05880911150513
H          -0.62128622360048   -0.99748432456224   -1.32009725488056
H          -3.15420815874930   -1.11799750789556    1.92571581515013
O           1.52589134077875    0.53218113962538    1.04950166001775
H           0.52391596464595    0.57441963188569    1.19127746947224
O          -0.54014336269907   -0.48077670747631   -2.16392502244280
H          -0.64134347842744   -1.11500702120175   -2.87476812374323
O           0.39660649129642    3.22135052411023   -1.39881055806349
H           0.19563506676140    3.78785300751341   -2.14410247753451
O          -1.73470913120520    1.70419876889817   -0.91112299290117
H          -1.53134420680227    1.00619800218841   -1.55064937508465
H          -1.58167988493571    1.29192122812516   -0.04197044107989
H          -0.45180244462957    2.78007821580791   -1.14812307919007
O           1.68209858746188    0.90195819962131   -1.42407363382596
H           0.94588284257893    0.36783412908104   -1.78533708584354
H           1.36663305620474    1.83538112339657   -1.47652199693160
H           1.66704253146629    0.68860645497302    0.01163308769868
N           1.75058411459907   -1.90493228032998    1.61853081815311
H           1.69727191232526   -2.45949016209073    0.77288928928152
H           0.84660645041750   -2.00457609548643    2.09483928923285
H           2.48750084431976   -2.26577773925522    2.21121603155801
H           1.74864862176267   -0.51193865369505    1.28584089373799
