    26
        -50.45890654  Gyration_radius:  2.59858146522 Dipole_moment: 7.947
 S           1.26339993769655    1.21526840158516   -1.43530116164152
O           2.13563038878269    0.04033127831830   -1.42673565944326
O           0.70783950612377    1.49465992558687   -0.13351579049677
O           0.25502346313833    1.10069218237338   -2.47923587177870
O           2.17224240837525    2.44651224574524   -1.82595958306063
H           2.38998029889302    2.25910672128907   -2.73329076168360
H          -0.90567914537788    0.10917798152189   -2.09129634174274
O          -1.87641265011647    0.89243206655739    2.82373823788435
H          -2.40846954907199    0.10438002199787    2.94239827593555
O           0.62915898522303   -2.09977546561527    1.84917825419360
H           1.42766320499083   -2.46283144884972    2.23509666173470
O          -1.55047951074427   -0.59473771028745   -1.79619374861203
H          -2.12974701812022   -0.75048529539789   -2.54405911362646
O          -1.97722438932548    1.41019185339404    0.18414914451220
H          -1.03567887023581    1.63340812812730    0.07258979799595
H          -2.11954486918201    0.65698686142508   -0.40258237395743
H          -2.01811033247719    1.18485912979187    1.89651824792444
O           0.74358963803537    0.40842153427818    2.36598099423827
H           0.64111469543175   -1.11626603557431    2.09729280924178
H           0.85010322552038    0.87077070621206    1.51646070808407
H          -0.14552123630041    0.66880429502857    2.68814070763852
N           0.58579941824110   -1.91693676712288   -0.76534019256053
H          -0.34261135930505   -1.58104922519099   -1.09139182871515
H           0.82958253298084   -2.78942534581058   -1.22246275011900
H           1.29268805984099   -1.15080402330248   -1.02384081444011
H           0.58566318700256   -2.03369203607999    0.29966214244988
