    26
        -50.45890737  Gyration_radius:  2.59848958549 Dipole_moment: 7.955
 S           1.07231537386350    1.96433153522070    0.35112545933129
O           0.08159947314508    1.54272042196707   -0.60903123542652
O           2.28023786788624    1.13945473878144    0.30245034551364
O           0.55838679590867    2.04518702040904    1.71075733078633
O           1.51332613578144    3.42709128887137   -0.04938142661890
H           2.07448083592499    3.67652079656071    0.67776116886028
H          -0.19177745072245    0.73286190183989    2.15347486183378
O          -0.57418691909110   -0.16339221425393    2.37432043583014
H          -0.79269848139777   -0.13292818255570    3.30726845430255
O           0.78773916740970   -2.45027240889360   -1.26259582162281
H           1.50492659374988   -2.73299453557714   -1.83187662357693
O          -2.84167932405142   -0.82782273404149   -1.88016133744584
H          -3.04171840472969   -1.69873161563174   -1.53418972344601
O          -0.23235496912265   -0.42870213258568   -2.46400840457538
H          -1.20550668039632   -0.54817104424448   -2.43657634864799
H          -0.05782056225963    0.35194196845093   -1.90990720232223
H           0.34506181822344   -1.68415774063653   -1.75878554012434
O          -2.32143783894840    0.68181617339359    0.28710913147648
H          -1.55325746667000    1.15405693598058   -0.08122167651389
H          -2.79380212188004   -0.22638000092080   -1.10479555375738
H          -1.97643904386080    0.22582691217394    1.06483028446234
N           1.47908853912897   -1.22862130713132    0.95101761909673
H           1.87964791756672   -0.27717188654854    0.65453347654905
H           2.16653623276316   -1.74851396163452    1.48651383319817
H           0.64132865905667   -1.02582478728496    1.53228079610158
H           1.19800382279320   -1.76812518173842    0.06908768678157
