    26
        -50.45653065  Gyration_radius:  2.55830489351 Dipole_moment: 6.238
 S          -0.29090232215509   -1.91589882991798    1.67316241174426
O           0.25250691322903   -2.93745932741057    2.51063360783312
O           0.28618868759765   -0.58792594855238    1.88103330464088
O          -1.84346906326327   -1.77928230842455    2.10123584643854
O          -0.32659008705540   -2.21797443388944    0.24415712983871
H          -1.24255931096725   -0.93642426542966   -0.00395023711651
H          -1.84674100594020   -2.23233577949448    2.93844528520089
O           0.98641492184517    2.52413429326603   -0.88058943894322
H           1.33432921974453    3.41616143218526   -0.86394952070246
O           1.31307201725495   -1.51354946359323   -1.76349949239292
H           0.73133865916289   -2.02109002904030   -1.16675498669077
O          -1.84551389681573   -0.16658547596983   -0.15007687809040
H          -2.65878141545762   -0.42581385954506    0.28842013378795
O          -1.13029043366946    2.29742701744825    0.65335509201331
H          -1.94711049564040    2.73425866008000    0.40531828328123
H          -1.29590366672905    1.33455017565438    0.55182237111116
H           0.19834113961104    2.51265861878318   -0.27696512307369
O          -0.35841332593494    0.49012068067622   -2.44442367664132
H           0.71181188193300   -0.90959559065717   -2.25206889596655
H          -1.03154052667767    0.28520464548330   -1.77896080010546
H           0.11079719089776    1.26913921682961   -2.12081431490827
N           2.00521545824715    0.17043750288639    0.09480874240824
H           1.85415953799493   -0.53979696503212   -0.70606485553400
H           1.76224809074919    1.11714547216523   -0.25122046548066
H           1.31680707157234   -0.10530334147469    0.86895079067303
H           2.95458476046405    0.13779789297170    0.44799565667446
