    26
        -50.45890645  Gyration_radius:  2.59841857781 Dipole_moment: 7.947
 S          -2.05395047148100    0.50283799585857    0.81253273703342
O          -1.56951737728123    0.17351703552748   -0.50584994164173
O          -1.37983598920603    1.67323853865823    1.37563162199523
O          -2.00331478767588   -0.61748962918810    1.74097683548951
O          -3.57784998272653    0.89062464106098    0.66375022954667
H          -3.85979910960255    0.95888533796736    1.57020974119501
H          -0.59017605307622   -1.31287042957046    1.77122924295636
O           0.35525439553987   -1.63581383001807    1.78529243675703
H           0.40094872932376   -2.28285752572750    2.49125585776240
O           1.05389957855594   -1.42269948413315   -3.02482053317543
H           1.95939053146816   -1.65043922317934   -2.80925311350366
O           2.27101611457347    1.61103066481417   -0.68490860524930
H           2.43841062855551    2.54438470071295   -0.82347898118462
O          -0.39078578049231   -2.22882724325071   -0.90110857262689
H           0.49230543300942   -1.83827914190112   -2.33409769133601
H           0.06273319356081   -2.25485596100923   -0.04938182469282
H          -0.96720306782020   -1.44542650790107   -0.84830918080557
O           0.32073517042592    1.06307800173717   -2.25580813625161
H          -0.44381505881180    0.84280414581037   -1.69566735402880
H           1.53628325929623    1.37538085357550   -1.34340451035000
H           0.55437510226238    0.22515457380520   -2.70904351515152
N           1.09690880317900    0.96749666944319    1.56877843447221
H           1.61723905205016    1.22570339529848    0.66859381113127
H           1.02418999653986   -0.06573309433154    1.65975834582085
H           1.56175168404486    1.36431752079519    2.37876989515151
H           0.09080599580100    1.33683798516037    1.49835278068622
