    26
        -50.45878719  Gyration_radius:  2.54404965774 Dipole_moment: 6.042
 S          -0.67242026232980   -0.50043163646843    1.79403345499411
O          -0.42558506502374    0.73159544253012    1.09792758208053
O          -0.07119181640016   -1.63569173474222    1.06869985610856
O          -2.04454736007907   -0.75180143722272    2.16523152677283
O           0.13380474097465   -0.42507428727394    3.16928420835669
H          -0.39857026447038   -0.96039726744289    3.74936612297557
H          -3.05754761158878   -0.02908367927185    1.02423310102531
O           3.13067784598062    1.33425106636872    0.14217176293315
H           3.83194468769945    1.76226370852844   -0.35052504651367
O          -3.58611069727720    0.18117922460830    0.22538447712852
H          -4.40896930485131   -0.30282768110182    0.32096645986391
O           0.20725903226957    0.19917211714667   -2.39908586676863
H           0.05353316054388    0.03635520568198   -3.33049154652302
O          -1.62441708094710   -1.08454863964898   -1.10048571391614
H          -1.16421491010321   -1.39865835167343   -0.30504933987953
H          -2.37838756843923   -0.55019707754070   -0.77020845404681
H          -0.57531342926692   -0.20646821064210   -1.91715681026292
O           0.83487266291560    2.33826816418269   -0.61133683893244
H           0.29677715835293    1.95339912352208    0.10418086750104
H           2.29865875100078    1.84943340021466   -0.05211570467350
H           0.57610499116791    1.83146279937593   -1.39319778278919
N           1.82960630422109   -0.88660731054879   -0.53108316237489
H           1.30062154496243   -0.51830541342692   -1.35535571138750
H           1.09526970498898   -1.17408499372377    0.19728141148175
H           2.39289809300754   -1.69187488339753   -0.78276344365128
H           2.42524670269187   -0.10132763803515   -0.15990541950265
