    26
        -50.45878734  Gyration_radius:  2.54369652583 Dipole_moment: 6.049
 S           0.76483892305841   -0.88995041688421    1.59222761339965
O           1.26629868593236    0.48556089218091    1.41059048742308
O           0.00796249002337   -1.30699117587132    0.44486595719113
O           0.12459426630707   -1.07526486984078    2.87262541985368
O           2.07642829376534   -1.79771265418055    1.63613764825979
H           2.27241232042047   -1.83222799645326    2.56718423200754
H          -1.54562955634290   -0.93198678176891    2.67404174995083
O          -2.46058518541337   -0.59801873454543    2.55943303260937
H          -2.77119856215628   -0.37818209594237    3.44012717780674
O           1.69587136227944   -0.80673756515318   -2.84139291240073
H           1.72339466968907   -0.73136460237504   -3.79606387566111
O          -1.30518693632697    1.47673454056224   -1.39616940317809
H          -1.87104570488654    2.20775232195737   -1.64741562941419
O          -1.29306911337588    1.39452338517471    1.18915765279660
H          -1.86443959405993    0.71384482532491    1.60530155233495
H          -0.38311184302335    1.13389277542992    1.40618257783224
H          -1.40307433695029    1.38411122354177   -0.40065357170131
O          -0.77545956195400   -1.24213507877496   -2.09919010923134
H           0.77962563964894   -1.12895359475462   -2.61337413466921
H          -0.57948075988422   -1.48366495463805   -1.17565729860512
H          -1.18195796111403   -0.36765437373840   -2.02746427151935
N           1.36178619889128    1.16884047120452   -1.09086258231472
H           1.96080868615270    1.98096640232203   -1.19439140431135
H           1.65003357855072    0.39285220738024   -1.74202474745680
H           1.38672764212890    0.83000042581815   -0.07258145301482
H           0.36345633862683    1.40176541402699   -1.30063371800460
