    26
        -50.45271678  Gyration_radius:  2.43395415227 Dipole_moment: 9.052
 S           1.22170861909147    1.08602113357459    1.66312639421791
O           0.33903376720902    1.28732613161106    2.77121846495037
O           1.12047833356929    2.09603199800646    0.60996443730195
O           1.10101810188488   -0.25314433381614    1.08466624452539
O           2.71355576070745    1.18337352427420    2.21263064802953
H           3.25994420738091    1.01978287050144    1.44812935424601
H          -0.32572402117663   -0.58589643589855    1.62312821737460
O          -1.57754464255542    0.48229556504767   -1.86949961788685
H          -2.31950926404889    0.83485624945249   -2.36198147442011
O           1.43594581191450   -1.91846971362118   -1.37933035300039
H           1.65315056594658   -2.09059047551697   -2.29787704140301
O          -1.28718764165632   -0.78982738425240    1.79642167582260
H          -1.39073553132782   -0.65577538226378    2.74030426959730
O           1.32799335197385    0.70201680630303   -1.63742581501420
H           1.34143628127139    1.23692513858050   -0.81544033437904
H           1.54383597117226   -0.93795194621258   -1.26132199798309
H           0.41968909369925    0.76813367333248   -1.95707713114842
O          -1.48722935402323    1.67630862228280    0.40708216638831
H          -1.58430440589948    0.99823231319882    1.09316575491275
H          -0.57394443592514    2.01538260809998    0.51354156772692
H          -1.54778278882129    1.00422269754439   -1.00484482702715
N          -1.09530111081137   -1.85647437169123   -0.67725263461515
H          -0.04942003193336   -1.97740365810627   -0.87059132002375
H          -1.62175469305495   -2.68339550897459   -0.93682694874762
H          -1.22240634956753   -1.63358770861131    0.32860836628865
H          -1.39494559501834   -1.00839239284344   -1.22251806573508
