    26
        -50.46306697  Gyration_radius:  2.54514489132 Dipole_moment: 3.914
 S           1.94400321635139    0.90812972601016    0.67760856374313
O           0.79259208890330    1.42148060824028   -0.03829901299051
O           2.48060611213139   -0.29784621969891    0.04759386815837
O           1.69620872220007    0.70592980100357    2.09091018992051
O           3.06764117122573    2.01492550698632    0.56605535500967
H           3.69118993197853    1.71637440346739    1.21955221591804
H           0.44004696469787   -0.30397390862509    2.55594432547680
O          -0.29444906049090   -0.95938003582968    2.51246103272503
H          -1.02534232729833   -0.48400757955752    2.09011632595004
O          -1.21911471312173   -1.54366449013291   -1.20448842435023
H          -2.05948128216819   -1.87886060390878   -1.51886043039285
O          -2.62716309399339    1.80790786656095   -1.56255467307648
H          -2.58944308360721    2.76490937429328   -1.54737033413794
O          -0.27729119620099    0.87129443819802   -2.47194091212991
H          -0.40056166006930   -0.07774649699786   -2.34352514845327
H          -1.81939873299710    1.51505448261896   -2.04739888850854
H           0.24813892963426    1.16763311560944   -1.70681233136454
O          -1.59780999883195    0.42715493926117    0.49234053270524
H          -2.18613389695383    0.96968171426809   -0.07525709483683
H          -1.43371513847265   -0.81037202271236   -0.56067160236433
H          -0.71985874798689    0.85912677384937    0.39794477148101
N           0.78148072136302   -2.19370963225392    0.47945205426196
H           1.54494194094463   -1.47501177300119    0.25315729070144
H           0.07159999932402   -2.16585733903547   -0.27811794609865
H           1.17561031212089   -3.12094498626382    0.59139395620499
H           0.31570281129985   -1.83822767232309    1.38076631639851
