    26
        -50.45708422  Gyration_radius:  2.51596244211 Dipole_moment: 8.114
 S           0.41490490405154   -1.37681252175318   -1.73991402767552
O          -0.73717365329532   -0.62379330102884   -1.31997043914820
O           0.93194357135342   -2.24135419692810   -0.67307989264992
O           1.47416651116914   -0.54586586254047   -2.29357548703721
O          -0.05228629796737   -2.34546079637625   -2.89795085513164
H           0.76328661894633   -2.76553765029845   -3.15151738413470
H           1.70341721440608    0.64176792083857   -1.29635902055519
O           1.90436392256297    1.29835971380080   -0.56998959295552
H           2.57529297776251    1.88550491756631   -0.92297443167549
O          -0.56608424571894    0.34017135293401    2.47190934577271
H          -0.70814865501848    0.70160557923599    3.34710616558064
O          -2.41791398994763    1.47520851465241   -0.78763548981365
H          -1.85995488860949    0.88213911830260   -1.31222413079374
O          -2.55173586821532   -0.83145634954282    0.76637235323593
H          -1.96513266161977   -0.98823635418068    0.01053141579108
H          -1.96994298475383   -0.56648415446771    1.48982870746646
H          -2.88117728657269    0.86759691150814   -0.18736631686983
O          -0.41460487890919    2.24768503723912    0.75785471181536
H          -0.56616964045313    1.12766307859785    1.83414637867752
H           0.34927852868595    2.03741052420450    0.20148266751448
H          -1.20684259832742    2.10467644303049    0.17874257040227
N           1.57130095404306   -0.66789212674149    1.24476840591397
H           1.27583117405492   -1.40196194795111    0.50328404160022
H           2.32548730698157   -1.02613585032521    1.82084212228365
H           1.86812582051889    0.16707142821866    0.69800746271148
H           0.73976814485545   -0.39586939780464    1.82768073946468
