    26
        -50.44985191  Gyration_radius:  2.67267433116 Dipole_moment: 3.399
 S          -0.04045879931440    2.48966819123906    0.37048764037147
O          -1.45757544438166    2.11172215070433    0.34766961179018
O           0.79010363109099    1.41087376947978   -0.14101554733995
O           0.36522289493345    3.01445438661603    1.64874197308660
O           0.11951916866343    3.66950305814329   -0.67699130336426
H          -0.08212362954066    4.44826188582591   -0.16797897580784
H          -0.34733149298792    1.83033121017498    2.65299676387015
O          -0.89368315193305    1.07642541054098    2.95438009863559
H          -1.79086886083005    1.30736328278805    2.70033679927820
O           1.18160844761956   -2.16370933167373   -2.42906735449583
H           0.76337177504090   -2.83224672249120   -2.97303689306465
O          -1.76112510034506   -0.21533362079386   -0.49768624823933
H          -1.79210911022256    0.77535670544381   -0.18830531982655
O          -0.09791381375820    0.13670341151333   -2.28609518397134
H           0.42415920960570    0.71888467758446   -1.69384141417767
H           0.43822145990045   -0.68949252182088   -2.41102720168856
H          -1.11734054215951   -0.13731298058056   -1.38854873134655
O           0.03233617233480   -0.71281560259028    1.24345108391884
H          -0.29882423253136   -0.24377203188590    2.04540149760935
H          -1.14331290652495   -0.62085169527552    0.21276843994934
H           0.56800493437985   -0.03085557729060    0.78576945599919
N           1.21886478540703   -3.14588864185158    0.07934600483331
H           1.22971452061883   -2.53135501319323   -1.50743741442248
H           0.83544987237159   -2.38610380503250    0.63665398890315
H           0.68644214177421   -3.98058706995744    0.29138482082548
H           2.16964807081845   -3.29922353550671    0.39164339900565
