    26
        -50.44985131  Gyration_radius:  2.6733266484 Dipole_moment: 3.428
 S           0.61005226817186   -2.03882700582506    1.35081053096934
O          -0.50497103582158   -2.48780546676528    0.51014114632720
O           0.71146515740306   -0.58807568556974    1.34231514084892
O           1.83480621060829   -2.73527504033984    1.05259921638182
O           0.22218956514868   -2.41991748070979    2.84048159987592
H           0.53529314833570   -3.31444797647572    2.92995391493981
H           1.78855113402995   -2.62471651221033   -0.65074591569806
O          -1.65052036957718   -0.55875256074849   -0.58029700640792
H          -1.31386008709957   -1.44328231633953   -0.15336719499362
O          -1.06740206278985    3.22299050736211    0.66141498520230
H          -1.83704732290549    3.73477983105861    0.40950734705999
O           1.46860126952126   -2.46638138310489   -1.56201134905284
H           0.67854903774741   -3.00703938139016   -1.64149917219660
O          -1.55646769643875    0.77061748482718    1.49643945190742
H          -0.69123509033824    0.36709772324287    1.72189028749406
H          -1.37325972283653    1.72097513532122    1.27559420879389
H          -1.75468658713174    0.07944984848291    0.31191378739722
O           0.73824915293150    0.05115152706125   -1.22570719977564
H          -0.79072759859470   -0.21769923439820   -1.02257849450349
H           0.93654800668154    0.00562606867821   -0.26658648184600
H           1.09844072826019   -0.79800663891112   -1.57509367688819
N           0.42944850323620    2.96182482893177   -1.56352713435569
H           0.64894556697419    1.96865876322800   -1.58321348685069
H          -0.49350820714452    3.14964705458432   -0.14615626095951
H           1.30449207365682    3.46272102558149   -1.47144544357922
H           0.02805393794969    3.20468690444940   -2.46083280010843
