    26
        -50.44985186  Gyration_radius:  2.6725098643 Dipole_moment: 3.399
 S           0.52764513158247   -1.06086276089723    2.22061467809894
O           1.14404451100998   -0.57877435664776    0.99472249128757
O          -0.88575639888911   -1.38557774833223    2.00057353949396
O           0.72201140522351   -0.21648442384976    3.37085996387882
O           1.25282960737714   -2.43516539328496    2.53714718225271
H           1.13762894240673   -2.53667485514120    3.47664204701790
H          -0.50763861194241    0.92867921159005    3.06340106706028
O           1.13836525926634   -0.27773491476829   -3.25514852165438
H           0.71000189512844   -0.48562172174743   -4.08647550036271
O          -1.57152642779716   -0.90049501028023   -0.34831893831345
H          -1.41601809713142   -1.20334427729470    0.63247586670207
O          -1.29179858686936    1.36585763341133    2.67392914248239
H          -2.00187882107832    0.72611338716293    2.77040282128918
O           0.52082203814068   -1.85874439103444   -1.23815428088744
H           1.01163380075894   -1.52878124320106   -0.45547631979373
H          -0.72657285278932   -1.39260096880600   -0.85709747070107
H           0.83192742250108   -1.31981315129825   -2.01175129542713
O          -0.47317177670515    1.34231810399829    0.16085019702755
H           0.32132811650132    0.82022642675748    0.40090786588105
H          -1.28328487642463    0.08180797184803   -0.29560678619476
H          -0.85915897963032    1.58723695515357    1.03479831726284
N           0.28547262104898    2.18119335007374   -2.55974173540508
H          -0.01317137343903    2.06278671161627   -1.59452263433945
H          -0.48204427445608    2.60205146071417   -3.06855722169516
H           1.05342758150767    2.84082322561617   -2.55918337401932
H           0.85488273470420    0.64158075861439   -3.00729113088557
