    26
        -50.46770707  Gyration_radius:  2.51913530737 Dipole_moment: 3.819
 S           1.74594781853817    1.30880470057415   -0.07613181509344
O           0.45649568158296    1.73249763468082    0.44911939405082
O           1.63044792962110    0.68781856815366   -1.38390409323865
O           2.47508673268299    0.49173599068516    0.87659136522622
O           2.59887593076708    2.62194879474316   -0.29673774241438
H           2.70626697551054    2.95301250505326    0.58920065488216
H           1.77782576761349   -0.87567264697236    1.28507049122762
O           1.26888175986584   -1.71198618231210    1.46582547544224
H           1.82502670287708   -2.24574368836068    2.03527799632344
O          -2.02956177446070   -0.79519847099675   -1.49439068995397
H          -2.49425801849652   -0.78188975953121   -0.62275807559254
O          -3.02457235809962   -0.57398733473686    0.94997759922161
H          -3.62613135002702    0.16091715215442    1.07673843969775
O          -0.98277726801864    1.64277977296737   -1.78409328154063
H          -0.22375189792958    1.53857966617069   -2.36508527450521
H          -1.80972492029101    0.14627855410764   -1.68823248425194
H          -0.58669980561071    1.78213442729668   -0.90153559738618
O          -0.76938350378171    0.08233322570289    2.18747743292122
H          -2.21845319505785   -0.35810155227496    1.47929161269593
H          -0.15474430173251   -0.66302272299271    2.14560015579857
H          -0.36717675778691    0.77886033233583    1.63562747452803
N           0.36895220112954   -1.61134007905212   -1.11377778832871
H           0.64584531281768   -2.35207569632347   -1.74889842067300
H           0.92259069111221   -0.73416164592602   -1.30594715051749
H          -0.69712730846978   -1.34620110124427   -1.26018055748626
H           0.56211896559239   -1.87832043388931   -0.13412512106380
