    26
        -50.43911247  Gyration_radius:  2.55925426974 Dipole_moment: 1.186
 S           1.43241140440693    1.68043008627686    0.84323931028554
O           2.78928702068719    1.57304226971139    0.43298576510031
O           0.46567212607036    2.15149015078500   -0.09309553352172
O           1.38913917338022    2.68151418630976    2.07955389585202
O           0.97955389721009    0.36445955230973    1.47846982017894
H          -0.03984766951511    0.29830670310912    1.57398991233452
H           2.25322088764116    2.65302457978073    2.48522096673593
O          -1.54016226696336    0.27629046697420    1.72168511202298
H          -1.82511088190116    0.79396128993873    2.47677097170516
O           1.15727834991788   -2.73024993304689   -0.02104395380237
H           1.38510061833379   -3.43504798524955   -0.62921939935240
O          -1.52456826146725   -0.54965406818668   -1.95523567828372
H          -2.13559667333374   -0.91627682684234   -2.59534114200233
O          -2.14393552250466    1.54853067549557   -0.41073002952070
H          -1.87354993616614    0.76688292970256    0.89020942667527
H          -1.30434815375283    2.03476915434507   -0.43135995165729
H          -2.03051363995570    0.84401437634576   -1.08684739757315
O          -1.45113128635288   -2.13543816065618    0.14347330171741
H          -1.55117823451493   -1.52663410598256    0.88338929822185
H          -1.50177455951735   -1.19516110908275   -1.19693056359988
H          -0.51658769281637   -2.43878560116198    0.17358265660841
N           1.54833040111686   -0.46070524653453   -1.44740785506369
H           1.96728848844741    0.23871239056366   -0.84682411728745
H           2.07849303638893   -0.47900171446340   -2.31044871378626
H           1.38460050528288   -1.88292657750924   -0.48007931685317
H           0.60792887988330   -0.15554747293476   -1.67800676513935
