    26
        -50.46225827  Gyration_radius:  2.49610855131 Dipole_moment: 6.731
 S           1.77108823263097   -0.95074487565594    0.24824364100216
O           2.61511420427456    0.17756304302204   -0.12374800203507
O           0.57352183094694   -1.04027670066033   -0.56683663898629
O           1.48054033612604   -0.95139822280134    1.67006301349383
O           2.60149586116189   -2.25798617351264   -0.05816637757668
H           3.39330901228263   -2.12189852359201    0.45147439979221
H           0.70423125527008    0.34320373079100    2.20013893118408
O          -0.46050307069265    1.11617244251759   -1.92909805086758
H          -0.02927604384652    0.25866059788978   -1.78471677183125
O          -1.69580369385070   -2.26588094033439   -1.66526470088543
H          -0.81101468030430   -1.95924555667883   -1.41960900056030
O           0.19812495123827    1.17240808970702    2.41170580328049
H           0.38253111734193    1.37023141407388    3.33099177405437
O          -1.60749131321989   -0.56031914114795    1.04436357158964
H          -2.04141330900933   -2.70883852779099   -0.88709216270427
H          -0.81158595648511   -0.83941527367884    0.56159568163104
H          -1.29858333117951    0.06161235804135    1.71177471524641
O          -2.82542266709882    0.23154923377506   -1.25412505389149
H          -2.60983639266246    0.05148250563147   -0.31911160116075
H          -1.42563504651292    0.93196596802006   -1.75091754326096
H          -2.70003871106165   -0.63059875236003   -1.68610001812161
N           0.91646454387178    2.15037192730225   -0.02513276124733
H           1.23851588173271    3.10324395100984   -0.15551489769721
H           0.23106408934584    1.84510550522252   -0.82154786518816
H           1.71741689156524    1.45618756486684   -0.09365859449737
H           0.49318601810987    2.01684437632237    0.91028847923164
