    26
        -50.46225826  Gyration_radius:  2.49608945826 Dipole_moment: 6.733
 S           0.18678153260933    1.91538330162805    0.63217064175492
O           0.60627601780964    1.07017063256991   -0.47064354896173
O           0.89516131017453    1.61019261302046    1.86871168249791
O          -1.25122940512766    1.90645380764960    0.82714225814507
O           0.59320185021873    3.38648292792578    0.22873894376031
H           0.35175504075017    3.88499857638077    1.00231007902767
H          -1.85648786286915    0.51036994564316    1.32165304960331
O           1.81049949474798   -1.37555468849490   -0.09232071551825
H           1.71545166666906   -0.44160156786526   -0.33899074709462
O           0.87107519554259    0.29654866208093   -3.15177139599824
H           0.92557716874415    0.69955133447808   -2.27322698191072
O          -2.12498992384532   -0.40653073333990    1.59670601552446
H          -2.92842928598374   -0.30667451411221    2.10928314812717
O           0.39601078555445   -2.23019311170171   -2.11708061829687
H          -0.44901680957100   -1.83227791882392   -1.83291480606111
H           0.75979719786602   -1.57330422439301   -2.73500360795569
H           1.34295795065462   -1.86596699526049   -0.82587010195890
O          -1.51452230546886   -0.53431123076467   -1.18572179922153
H          -2.00003480852362   -0.69316663100702   -0.36919764858904
H          -0.85074173220498    0.14059448858708   -0.96591977316882
H          -0.01431168508518    0.48745993581316   -3.46936388207382
N           0.49827633584380   -0.95636346934719    2.07401116503017
H           0.72898520635680    0.07888399436347    2.13084156832900
H           1.02764976119914   -1.29809552547395    1.17945818258951
H           0.80837818155726   -1.45206479166028    2.90274374819624
H          -0.52807089761391   -1.02098481790170    1.95425515424271
