    26
        -50.46225822  Gyration_radius:  2.49595618066 Dipole_moment: 6.726
 S           1.68573809176718    1.01560049493888    0.47873927305780
O           1.08825849290632    0.34010819830571   -0.65847914895676
O           2.15400646334019    0.08395182351489    1.49679893866946
O           0.81675699892901    2.03025638219955    1.04562110274413
O           2.96315078647249    1.75603197241107   -0.08009201886937
H           3.34111101277361    2.13402410000880    0.70695455565772
H          -0.51062788925851    1.46958260122853    1.74125876528141
O          -1.31166661990396    1.01534434688076    2.11599566146684
H          -1.63566791771735    1.58180183761312    2.81766276049590
O           0.08225886085352   -2.21769170961194   -0.50755339483741
H           0.67442601391276   -1.49146007619056   -0.76047888568481
O           0.12583268311213    0.09366056563420   -3.27941698368649
H           0.64141221129551    0.16938919642677   -2.46351065053934
O          -1.59317025196639    0.96409655952838   -0.72137546296184
H          -1.85029991027982    1.07458790594347    0.20021557856551
H          -0.62474059912962    0.88379809909514   -0.71278144617656
H          -0.34838555807973    0.92380198264383   -3.36376556296380
O          -1.86198833506428   -1.39413227036339   -2.04764682910712
H          -0.73006943238253   -2.07110811776617   -1.06962761815830
H          -2.03288966748676   -0.56067539770649   -1.56879549823226
H          -1.26693179014607   -1.12413402152253   -2.76778112007990
N           0.01848043484435   -1.35084402903633    1.90788377668963
H           0.95268752041532   -0.84813700946284    1.85805115053525
H          -0.08937136613549   -1.81048540676881    0.92059405947689
H           0.01009706463068   -2.04663246574902    2.64578182335134
H          -0.69840729770083   -0.62073555220620    2.06574716426015
