    26
        -50.46710405  Gyration_radius:  2.43631331711 Dipole_moment: 5.127
 S          -0.09421066323376    1.42910881582455    1.23730153093843
O          -0.43559650758115    1.20086643249124   -0.15189475214944
O           0.19832400499850    0.16218359943514    1.92170982299465
O          -0.95753208629677    2.30202586954832    1.96922283668799
O           1.33860880151313    2.17289422933898    1.16183155248645
H           1.28446456680645    2.80479185733380    1.87197977483866
H          -2.61950720247228    0.88250644739671    2.13060529734599
O           2.68918559085039    0.58388126722378   -0.84286581823405
H           2.39195358279801    1.28570246101216   -0.24989758576874
O          -0.53649837096213   -2.05026337581446   -1.59666218363026
H          -0.90685385637847   -2.89044173423406   -1.86869604527537
O          -2.48038854624318   -0.06212446984689    2.00858638644932
H          -1.53315272955925   -0.17986775179648    2.17286137796349
O           0.63822815344384    0.46694894806811   -2.52144261875250
H           0.27911449958734   -0.42716528444478   -2.56922028675387
H           0.14298437483549    0.89718077954041   -1.80384810092318
H           2.10696741835568    0.64388379440095   -1.63771419632780
O          -2.41754719135281   -0.50708171973965   -0.67693004635772
H          -1.83425627957674    0.27288205386395   -0.64083153206392
H          -1.30716012746518   -1.49942502797111   -1.26884220083563
H          -2.70140228003069   -0.60683387518762    0.24941574528999
N           1.35845460388466   -1.40797966700531    0.22155660166035
H           0.85053791730461   -0.83977061288503    0.96750340702623
H           2.02205133091395   -0.70762529042726   -0.24027964716464
H           1.86220520580790   -2.18342640758669    0.63791448220282
H           0.66102578904984   -1.74285133692181   -0.48136381132926
