    26
        -50.46166230  Gyration_radius:  2.51022826689 Dipole_moment: 6.135
 S           1.17065695193313   -1.73595937344700   -0.79279313398891
O           1.62564590370620   -1.00463691964216    0.38610975675518
O           0.43177499305574   -0.88567010921122   -1.70154661532517
O           0.47832259145151   -2.95347074538069   -0.42163076313402
O           2.47701408717835   -2.18005918205466   -1.57237563431227
H           2.84762991650851   -2.84192928480052   -0.99720021111432
H          -0.48731480300285   -2.33076692943061    0.73040074607617
O           1.65990685540360    2.87677082072229    0.74660606935670
H           1.48903345966642    3.81695895341598    0.67845251806177
O          -1.16138801221518   -1.91819659506913    1.32133408751487
H          -1.58655123759718   -2.65167135388788    1.77007855661370
O          -1.92169383762972    1.50484460376995   -0.09963566002996
H          -2.78743390930146    1.84605158056612    0.12586112273473
O           0.60503576450039    1.79048526781771   -1.43207607992661
H           1.45897758039276    2.49680059030959   -0.14397676485180
H           0.69833068566838    0.83590889575299   -1.61396462643442
H          -0.33081532940103    1.90824915892984   -1.22508641058016
O          -2.15002648562657   -0.89064101304806   -1.01933382702748
H          -2.07869576301918    0.61156715532081   -0.53714247680510
H          -1.28955572323409   -0.97121364049931   -1.47582017125046
H          -2.01693400985055   -1.35836145152831   -0.17505886735806
N           0.15849786350295    0.81175542157879    1.51374638956464
H          -0.70404822157428    1.01198314223905    0.96151037749292
H          -0.07158228142004    0.51880442867948    2.45656160930432
H           0.71809099723669    0.03105596674293    1.03724484023819
H           0.76712196365960    1.66134060216076    1.47973513842621
