    26
        -50.46710406  Gyration_radius:  2.43634834746 Dipole_moment: 5.127
 S           0.87622257246904    0.59958474197911   -1.56696334845288
O           1.78296007963905   -0.20259833029487   -0.73424885934753
O          -0.48194577121362    0.53187514011146   -1.06765370796139
O           1.04759597180576    0.40353370809033   -2.97234477264787
O           1.31778824051062    2.12527871392747   -1.26853682013362
H           1.84527751889672    2.34363435413200   -2.03051244246641
H           0.67525044230348   -1.75556861578829   -2.93915370397977
O           0.75146959659458   -2.26144306261819   -2.12378163136548
H           1.31715719162005   -1.71136426826687   -1.56204627277942
O           0.31103632005864    2.48448355577608    1.41970765264489
H           0.62136021239685    2.60581405706571    0.51337133490408
O          -1.38275831161849   -1.37572393256699    1.79892823669494
H          -1.67124344169326   -2.13519106741867    2.30592487451689
O          -2.04771034410773    1.35443196683044    0.97636674653086
H          -2.12389529773989    0.51414408521668    1.44407701990522
H          -0.65603850404623    2.30071749271396    1.34651804031330
H          -1.67358027595457    1.12457592737173    0.10889044277228
O          -1.56641171934799   -1.88497725759226   -0.74522941973111
H          -1.49086358029107   -1.62736567296996    0.83467730482912
H          -1.39044894015809   -0.96023215599654   -0.99776012274338
H          -0.84455928132253   -2.36933024548981   -1.18446117459626
N           0.96457316661095   -0.03680074405234    1.71610762572554
H           0.73963799386450    1.00813248243079    1.75610454135691
H           1.65527115083509   -0.29859005689781    2.41097554445861
H           0.08360948370143   -0.58748977579726    1.83127329331560
H           1.34024551727813   -0.18953105803478    0.72976963699660
