    26
        -50.46166159  Gyration_radius:  2.51025517061 Dipole_moment: 6.114
 S          -1.12726127540093    0.41171272517802   -1.88928263859937
O          -1.65151553658716   -0.53227099789957   -0.92537834388680
O           0.33146420485214    0.46083930832103   -1.86168978119545
O          -1.70068420864856    1.73914496745035   -1.79506695019842
O          -1.52846528265641   -0.14999181490427   -3.31603540462960
H          -1.31902287580991    0.57761423845296   -3.89288667509326
H          -0.79960756269129    2.29228618659775   -0.55771298814933
O           0.05428226699931   -0.56169856912366    2.37867609235469
H           0.11610850645569   -0.40454439259095    3.32116717998610
O           2.64131584342086   -2.14556528121537   -0.11848163902572
H           3.01715698789167   -2.81966082815889    0.44904994774800
O          -0.34993095447727    2.56428710139441    0.27744181595904
H          -0.52356769282232    3.50376707858419    0.36318036483662
O           0.00979737970792   -2.36497043611742    0.14431769085535
H          -0.59745296608752   -1.81131218015850   -0.38267652776789
H           1.67698689938885   -2.35271879337316   -0.18783298729921
H          -0.08285918913535   -2.03590800731353    1.04742211038609
O          -1.98587309356913    0.68908533088374    1.42503503223925
H          -1.52000367625379    1.50483781093656    1.16653178063650
H          -2.09658525923605    0.20077726769438    0.58554068479533
H          -0.80518412224213   -0.13098029146602    2.07901668704377
N           1.66443591727732    0.28906517981128    0.35567773635282
H           1.04383538486033    0.07057622611298    1.16577465028317
H           1.07372811212197    0.39014838314666   -0.53346733310741
H           2.17385059367710    1.15211038496037    0.50832062900645
H           2.28505158900796   -0.53663058719269    0.19335887647019
