    26
        -50.46710399  Gyration_radius:  2.43630443898 Dipole_moment: 5.128
 S          -1.82151531890351    0.41833683379853    0.29928082887533
O          -0.58979822070462    0.42252514431161    1.06175369643122
O          -1.55079679625934    0.25602653209746   -1.13580071587272
O          -2.76087590569163    1.45200336368192    0.60270363322965
O          -2.52912610241217   -0.97135497078405    0.72350565361871
H          -3.45150812832964   -0.73695875223728    0.75190567894587
H          -1.62978520761023    3.06532496622978   -0.35784501053223
O           2.61216364407073    0.09429548098867   -0.45653009865095
H           3.43198992470656    0.36751977698721   -0.86919340808365
O          -0.28422970911357   -2.79338122012602    0.63173988013439
H          -1.11940465573047   -2.34716722861970    0.82111766047792
O          -0.94970157084892    2.87447505354727   -1.01181728199232
H          -1.17616477547200    1.98792838211082   -1.32956328042673
O           1.29379136715107    2.18015300321105    0.36597728862048
H           2.16113907782558    0.93527376185213   -0.14969258508131
H           0.73607232846262    2.66736431500907   -0.26666373739783
H           0.64482579918760    1.64325321403104    0.85637008285715
O           1.41630749941523   -1.19030017828096    1.88705690212654
H           2.10517536237762   -0.87761213163768    1.28843617850846
H           0.70562289902176   -0.53055311196898    1.81655223570410
H           0.37067405559319   -2.40925042826422    1.26254807902664
N           0.49589465937595   -1.30975118342981   -1.38360031314107
H           0.60105220518885   -1.72550483710803   -2.30258452919034
H           0.24779908433038   -2.04190856051869   -0.64431253132754
H           1.36372204771658   -0.80350208060597   -1.09512018825293
H          -0.32332358372036   -0.62723515027131   -1.36622415805592
