    26
        -50.46166230  Gyration_radius:  2.51027277294 Dipole_moment: 6.136
 S           0.61331413356535    2.13537705296510    0.27637187180694
O          -0.53342224363458    1.81096184230955   -0.54499933874681
O           1.60982470382106    1.06838501554067    0.26287104970252
O           0.28259741623941    2.52929467002038    1.63089440323549
O           1.29816701305683    3.39221458620970   -0.40428541446874
H           1.94811350277687    3.65045940900713    0.24141076038610
H           0.07745742431581    1.04310142488762    2.26106458361068
O          -1.71947935468052   -1.70440353748794   -0.32478616697637
H          -2.33316201232037   -2.39607836446132   -0.07614693335938
O           1.68903716811957   -1.89761930700011   -2.26614520681544
H           1.47149663908669   -2.58764622660836   -2.89413420299636
O          -0.18067876409589    0.15019809536554    2.59244913486516
H          -0.26487342427583    0.24820359494647    3.54294209395042
O          -0.34098008939622   -0.19120644378937   -2.33839885425319
H          -0.32638132616064    0.63083378517625   -1.81195689546643
H           1.04968115519859   -1.16233851867004   -2.43526522507879
H          -1.01659353373308   -0.73763335448173   -1.91713303301685
O          -2.32363502545323    0.47150559718415    0.91475110858417
H          -2.05642161384012   -0.86180768404439    0.11185381258538
H          -1.73419548430338    0.34352837381991    1.67992281097446
H          -1.84908413694108    1.11465923813390    0.35216896057801
N           0.92811304732759   -1.43331528651094    0.24617250520430
H           1.16604004226565   -0.38864936250610    0.28735845243197
H           1.26080480289356   -1.87692256042232    1.09480710886963
H          -0.10290537861488   -1.55395422964015    0.13832363314876
H           1.38716534880605   -1.79714783994266   -0.62011104875824
