    26
        -50.46710397  Gyration_radius:  2.43633034581 Dipole_moment: 5.130
 S           1.29152670691624    1.36688397422203    0.21434803207353
O           0.21286458537361    1.50588129854836    1.20243638406777
O           1.17836842208541    0.11383535380573   -0.50370181606344
O           2.58843130914699    1.69767980096609    0.71584446988169
O           0.94378802925971    2.48099964304614   -0.90361309276773
H           1.53935464468824    3.19081947360005   -0.68453345771929
H           2.57338593782276    0.23208739408732    2.34592617842249
O           1.74852003233980   -0.14652473806186    2.66659770055401
H           1.07641654556924    0.49277560437885    2.38781164798545
O          -1.40660810322626   -2.24509242137965    0.14373414207422
H          -1.84526748005091   -2.99324000685548    0.54982679059822
O          -1.35241336743532    1.28334657218988   -2.19293933898576
H          -0.56066156933751    1.79253851993316   -1.97770864940856
O          -0.32832940402316   -1.15873995203789   -2.35220370080024
H          -1.02607875454779    0.40870827841625   -2.51358450531188
H           0.39487849260649   -0.79274305963387   -1.81524022793919
H          -0.79008303727266   -1.76812504480843   -1.76390957936327
O           1.06938777900443   -2.13267329359198    0.93245938276585
H           1.27593090114506   -1.70768040943973    1.78413766284770
H          -0.45988835738342   -2.26540246381334    0.47269819318022
H           1.30052712599096   -1.44174873451794    0.28512885868361
N          -1.91376592204678    0.40953385665036    0.21392466734260
H          -1.07373732836987    0.84280036895021    0.70775193201782
H          -2.78008152225956    0.68923435682809    0.66080322885029
H          -1.85031534976766    0.77505463161174   -0.78931143460071
H          -1.80615034555030   -0.63020903387094    0.21331654179653
