    26
        -50.46166228  Gyration_radius:  2.50975572178 Dipole_moment: 6.128
 S           0.11640257007893    2.20938511010820   -0.34086958319323
O           0.65861177562944    1.60848942429367    0.87422387108023
O          -1.01065698120473    1.46072468076877   -0.85475702190986
O           1.15968528126077    2.45777515619404   -1.31523229132492
O          -0.45406056132822    3.62677112592785    0.07988465180657
H           0.33690583240654    4.12150169065483    0.26894113557110
H           1.90932987982438    1.01628641820695   -1.23119824956232
O          -0.66120429458953   -2.23962351657948   -0.72189604681276
H          -0.55230356992440   -3.11176888881964   -1.10176827499170
O           2.26524960811246    0.09689356292471   -1.27531923995025
H           3.08043914951115    0.16559913570264   -1.77619588012114
O          -1.09141533211135   -1.12565841062956    3.02193290189211
H          -1.63188298948484   -1.84810176879755    3.34404282005254
O          -0.12712476249773   -0.45052752575337   -2.49686788592720
H           0.81345939405938   -0.33244502519561   -2.27182293685426
H          -0.53350329679824   -1.58730633232415   -1.47824835315666
H          -0.56938813517521    0.31972353764146   -2.08882854284117
O          -2.21970593081755   -0.33229581643629    0.75406918270736
H          -1.61249457964771   -0.69439605951810    2.30082844712926
H          -1.87772629227964    0.43738190117126    0.26048461958431
H          -2.00305542544196   -1.09269733822411    0.19973799082888
N           0.82033937788042   -0.96246729560000    1.17110781573710
H           0.76609763921982    0.09356445028337    0.99368151197614
H           0.34911517272151   -1.47311854750100    0.39241361323879
H           1.79515722883931   -1.23043634402594    1.24597679983148
H           0.27372925176989   -1.13325331449019    2.04567894522036
