    19
        -40.91893371
S          -0.22754244216851   -0.61736284943508    1.60892274303403
O          -0.04519632798190   -1.54537041726706    0.48221130775602
O           1.00454437784509   -0.37319171404135    2.31486078340672
O          -0.94618600863864    0.57108123380895    1.19353624323286
O          -1.18621844596770   -1.37082910248345    2.62585741646457
H          -0.58086881040093   -1.88627553323047    3.15034864281325
O           1.81118373462114    0.38773599250742   -1.93303204897399
H           1.78557106567305    0.85458180668123   -1.05515768404990
H           2.56461238763891   -0.20488939835481   -1.89742534485997
O          -2.08301465239294    0.94188149009451   -1.10438422593987
H          -1.70780624479297    0.90691744119914   -0.18657891794048
H          -3.01002745166759    0.70943981856858   -1.02582042252864
O           1.59782744029895    1.41944777802378    0.47001836651534
H           0.76986417625814    1.89967360181756    0.56590425042173
H           1.57906394548968    0.76279461027678    1.19540832039328
O          -0.40908531823128   -0.81915663279983   -1.83944250120898
H           0.48757801617150   -0.32696549324894   -2.00348168313952
H          -0.28107047360875   -1.21401153928456   -0.85213590288131
H          -1.12322895816062   -0.09550109282161   -1.70960933250390
