    19
        -40.91793133
S          -0.85726533843315    1.07983706845987    1.08853742511676
O          -1.01219810280273    1.27692232197961   -0.36185690451039
O          -2.03022965771890    0.47660429041780    1.67842816897245
O           0.37373936096582    0.37919247956957    1.39122412322362
O          -0.70979287984041    2.52937452350864    1.70290945176682
H          -1.58374598372517    2.90524956881965    1.64039247254496
O           2.36568286619169    0.62755506264973   -0.28011334899536
H           1.60920548595209    0.63621855313155    0.35355834903754
H           3.14078301402172    0.41219692447043    0.24208113982800
O          -1.15279952413030   -1.88672683435895    0.96349779730341
H          -0.27890170107512   -1.72431399234645    1.33819052970275
H          -1.69960200121960   -1.15617886240968    1.33162072191288
O           1.46564655091701   -1.04110300824689   -2.08057218826948
H           1.60180692645166   -0.62560681113747   -2.93446161410795
H           1.87168612826309   -0.42885199579046   -1.40747082103933
O          -0.97646099649641   -0.95635155679006   -1.39249852678338
H           0.00263114112155   -1.06306459161270   -1.71189051174691
H          -1.08277638408385   -1.49508918764528   -0.51993869759102
H          -1.04740890431443    0.05413605734106   -1.04163757636750
