    19
        -40.91793142
S          -1.03744862459148   -0.06184431196509   -1.41648897985293
O          -0.29957865422138   -1.27636875644084   -1.03320477649219
O          -2.44110474574476   -0.15827930691820   -1.08780880981478
O          -0.39590058700117    1.12586274678620   -0.89150744108574
O          -0.92396581646547    0.02737573714965   -2.99111660290340
H          -1.49145026554211   -0.66864165590731   -3.31123897391460
O          -1.89966354810326    0.58621947168327    1.36544775825548
H          -2.36812367706122    0.29557211089043    0.55037665054799
H          -1.37863966356900    1.34151856870875    1.06801486804385
O           2.18117137451276    1.04153856407380   -0.47428564845255
H           2.45220088425401    1.96148143144103   -0.48189725756452
H           1.22730401218435    1.04084963533575   -0.72711526661943
O           2.08582221841618   -0.30367726445143    1.76571067876170
H           2.77197679102048   -0.97230452005913    1.71573285139221
H           2.17397999506681    0.24511058243588    0.93879368709106
O          -0.21766177868058   -1.31489559422526    1.42507315202957
H          -0.23318049030302   -1.41512356358929    0.35804840391953
H           0.71314402261877   -0.91890800069297    1.64548391729895
H          -0.91888142682490   -0.57548586424341    1.58198179936856
