    19
        -40.91793138
S           0.78625376383793   -1.22278737000988   -0.98674368944333
O           0.57224310534244    0.11432884898992   -1.56360505529388
O           2.16863849661844   -1.43875383306477   -0.62627351454726
O          -0.14488587390971   -1.48055787692633    0.09231368347625
O           0.43096418497035   -2.24633640954805   -2.13844531203886
H           1.15360119959256   -2.17128793112990   -2.75579460104644
O          -2.44995938138848   -0.25296110239426    0.04031438778710
H          -3.01863061881584   -0.79444780081209    0.59097641299117
H          -1.59966167565017   -0.74795527316781   -0.03545854086274
O           1.75191452747455   -0.19995985450535    1.64461338166369
H           2.17334928323610   -0.68296373418255    0.89804988133170
H           0.96653877748600   -0.72559795118213    1.83776902195318
O          -1.58494309612923    2.06437126135919    0.88746960089459
H          -1.97131487584555    1.19160511565627    0.60157175271841
H          -1.99846895337799    2.73171116581957    0.33603662314807
O           0.85415175247897    1.73413045040467    0.26608025764850
H           1.27208246064060    1.08002314830133    0.94466817737661
H           0.75365235922925    1.11833191374393   -0.60550632153097
H          -0.11552545581289    1.92910726264025    0.57196385377056
