    19
        -40.91793137
S          -1.10255913946871   -0.74425983077226   -1.14742441373624
O          -0.82481363632227   -2.14380847055216   -1.37474468617357
O          -1.57839812433233   -0.49494485190495    0.22292887305874
O           0.00094069751643    0.13143631162665   -1.48393489058347
O          -2.30105744115134   -0.33851953456681   -2.09581685679482
H          -2.94640715026419   -1.02965347468364   -1.97404595201150
O           0.14018112291027    2.44374591760576   -0.27696835357828
H          -0.00869435295945    1.59512677706526   -0.75809674748017
H           0.67978210591630    2.98222641889155   -0.85892797359833
O           1.54100575036244   -1.83204956426727   -0.29227937279616
H           1.73736937930678   -1.06023091074168   -0.83652551989967
H           0.74431453924002   -2.21863142357601   -0.72137829736224
O           1.09910191043110    1.55180683365181    1.98600878450251
H           0.77400116456233    1.94661387836795    1.13089959058574
H           0.61460865044970    1.99557592638739    2.68504053234806
O           0.33956081583734   -0.85589591665560    1.72035418753490
H          -0.56530164443750   -0.71668186790713    1.16281494237926
H           0.95191886534526   -1.31069243909476    1.02665243255311
H           0.70444650702383    0.09883622110947    1.88544372105580
