    19
        -40.92218956
S          -0.57471467443289    0.23889691563553    0.97613612234643
O          -0.86627576039186   -1.10019089863844    0.47416107522274
O           0.86370512672884    0.44568159355411    1.11033146953819
O          -1.18513604869387    1.26825147730826    0.13483231178482
O          -1.22100828396218    0.38277092868805    2.38491740681967
H          -0.77374476258394   -0.32638107478035    2.89200656899236
O           2.03154873272355    1.21039025567031   -1.07443178455077
H           1.68495912531653    0.87106447562640   -0.20550514826767
H           2.42638746431376    2.06478425819932   -0.88728345652761
O          -0.77307985178726   -1.30132057741470   -2.10899276231273
H          -1.64592698864699   -1.58275225659661   -2.39156735941001
H          -0.78112078178666   -1.33604913019720   -1.11449817383277
O           0.41247059873805   -1.63095137261904    2.83290997583129
H           1.09511339842077   -1.05240030072918    2.46792645490430
H          -0.00716762159362   -2.03437243577599    2.06141178834251
O          -0.25210027023327    1.16802233152143   -2.14871589263914
H           0.74455171054433    1.22583818677562   -1.87497096020512
H          -0.44148096341785    0.16348838126968   -2.31239096513581
H          -0.73698011925434    1.32522927250107   -1.21627667090169
