    19
        -40.92218957
S           0.44214130759026   -0.84000184808110   -0.66261443944039
O          -0.77359207442813   -0.26438004497129   -1.22870663787045
O           1.42033951572939    0.19934000721053   -0.35768356164445
O           0.14733043418957   -1.65655534371474    0.51479063519004
O           1.06399727671877   -1.79996809674494   -1.71843536828740
H           1.23577717377109   -1.19710965166170   -2.47151293862003
O           1.12172615999873    0.46089061885577   -3.06358860098388
H           0.18205739187869    0.52053988647543   -2.84605151607747
H           1.57731186263404    0.81359104529993   -2.28766111465365
O          -2.47707442308484    0.56242225860099    0.54233905947317
H          -3.28230883949287    0.05998585176078    0.40060737103872
H          -1.86847810653181    0.32447705300017   -0.20819147629277
O           1.08278261118548    1.31884228177462    1.95629658408475
H           1.26082252080660    0.98831402715076    1.03469630550729
H           1.88676834256463    1.15947917394924    2.45542427307861
O          -0.85456073026434   -0.26406420972307    2.29027919814822
H          -0.11097399454742    0.45593382173674    2.31276398911395
H          -1.61659553640271    0.13583871854866    1.71494538746147
H          -0.43747088231410   -0.97757552946703    1.62230282077539
