    19
        -40.92174075
S           0.66832697411725    0.09941726576227   -0.58838982204577
O           0.84787619181210   -1.32941355596160   -0.44027504897728
O          -0.74979699641455    0.40478126967103   -1.03446655659664
O           1.00769702012656    0.86654260220448    0.57405273642652
O           1.52943536065618    0.58391491090877   -1.77498609724542
H           1.46709371169104   -0.12889786392570   -2.46243108568430
O          -0.79939751665664    2.35332743744223    1.90370028268798
H          -0.81328834500635    3.23725556130794    1.53305801257569
H          -0.02598401241916    1.90234415615483    1.51496942923351
O           1.27591661055130   -1.67400352427068   -3.03015335099725
H           1.00738052343916   -1.91156516693749   -2.12331722839184
H           2.08046860249385   -2.16307766497873   -3.22051561773782
O          -0.39472474729175   -1.32990073636853    1.96432117419907
H           0.08086049462682   -1.55688043838921    1.14827522768752
H           0.19535561375236   -0.75675969781716    2.46082208726907
O          -2.21714829951975    0.31513434874721    0.95129832410215
H          -1.76266761514955   -0.41361729879581    1.43619879669478
H          -1.92987447410896    1.14032281757218    1.40636104032012
H          -1.46752910670169    0.36107558767214   -0.21852230352266
