    19
        -40.91893403
S           1.12602296317400   -0.41287611887731   -1.25347253544684
O          -0.29530549736498   -0.59095456502712   -1.47682884953789
O           1.66357871424825    0.84392657053411   -1.70971236780391
O           1.47948592142279   -0.69038538402145    0.14711109064856
O           1.84510232703701   -1.54443501301749   -2.10271239187602
H           2.71609872604229   -1.18542298781206   -2.24197012599945
O          -0.42670167934527    2.05995683468568   -0.65568192803215
H          -1.07108506760809    1.49297178002201   -1.09001849319632
H           0.42908526012032    1.79600357219266   -1.05129887595998
O          -0.51279525457895    1.75344459481369    1.94564605817336
H           0.25871190343505    2.20956800188192    2.28738265226793
H          -0.53930625177538    1.94809064548546    0.96977200427451
O          -1.98856948657461   -1.56308002636383    0.22631674286148
H          -2.08307530554558   -2.50250497456764    0.05864715107843
H          -1.43462651045800   -1.20204493375905   -0.51336731499861
O          -0.25152948335515   -0.76086641417935    1.89418599267336
H          -0.41203025536772    0.25463481525028    2.02395018747689
H          -1.04967377404133   -1.11956972842036    1.36035540530757
H           0.54661274051691   -0.78645665888177    1.18169557809241
