    19
        -40.92174067
S          -0.58282673771280    0.56892020991317   -0.37219698929311
O           0.77513252565204    0.38466303020370   -1.02446967479343
O          -1.40289567108749   -0.60443638960299   -0.58775485936407
O          -0.43515731821411    0.94828565572474    1.00227144027112
O          -1.19815560964474    1.75061969892394   -1.15249877782005
H          -1.53051177506780    1.36728871673061   -2.00526300831978
O           1.95062802958249    0.97209473542768    2.24784221590917
H           1.02984998845348    1.05421381278018    1.93470398819324
H           2.35194487494823    1.83610256236898    2.14138819396201
O          -2.13358231274281    0.19137412023992   -3.00496380666669
H          -1.94216862128036   -0.43737370469745   -2.28463919849876
H          -3.08544398571922    0.18674811430355   -3.13439031007645
O          -0.13593049385177   -1.96553760609204    1.37932406838294
H          -0.72027370710976   -1.67119421911003    0.66129248733346
H          -0.34861628835945   -1.41084699717877    2.13456968332389
O           2.16712882116547   -0.99927571019059    0.47608463618168
H           1.44473787337614   -0.23792839648338   -0.43568571828630
H           2.33664981645121   -0.34595525135664    1.19367175215533
H           1.45949059116333   -1.58776240190212    0.83071387740251
