    19
        -40.91687582
S          -0.33102627026704    0.11784595006819   -1.77333667955997
O          -0.26328481769248   -1.31206045952719   -1.50162479131445
O          -1.49348800206427    0.72115115817813   -1.13448331396584
O           0.90272076126722    0.80533672994001   -1.45970445196673
O          -0.55212335106681    0.26827290155489   -3.33337051218768
H          -1.36375212274895   -0.21437689282065   -3.44859107631133
O          -1.92635741910690    0.10258271814958    1.29803916624289
H          -1.80138363693756    0.28610194122963    0.31706484543625
H          -2.39052068841845    0.86819068020538    1.64366631804889
O           1.39631189015261    1.83936561878717    0.82184084153284
H           1.16126222903617    1.53385979373731   -0.10291413968692
H           2.35084053434400    1.93845372116524    0.82317760510211
O           1.17522335090469   -1.97052727597781    0.49575875100784
H           0.86453828438820   -2.85259968579059    0.71151557457870
H           0.68586914393675   -1.71056261701614   -0.34300423987125
O           0.45670863082044   -0.13869764712851    2.05525044852545
H           0.89086058612921    0.71099413674228    1.63207870710806
H          -0.55993964853792   -0.05517000247662    1.82677617712559
H           0.79754053586221   -0.93816078901996    1.47186078015376
