    19
        -40.92343661
S          -0.50549661924820    0.68168499312983   -1.45775781335296
O          -1.79581756110175    0.30207985903707   -0.92320946158348
O          -0.01618514448810    1.92923251895182   -0.86887718216867
O           0.47781079255907   -0.38471531188439   -1.35246427379865
O          -0.68916246169830    0.96283321107014   -2.99699557673382
H          -1.31716723827380    1.67841733829969   -3.00510576124809
O           2.24526060497922   -0.37088737380851    0.64698740474854
H           2.00983358358455   -1.23200924593717    1.00974417918443
H           1.83666018157241   -0.34947275467930   -0.24331938013272
O          -1.32502644632921   -0.14920333124186    1.60996606054275
H          -0.91585840797715   -1.02869156389547    1.46977896740526
H          -1.71936221665181    0.06791597659592    0.73166078959175
O          -0.02447313347446   -2.22028443435527    0.49881582199059
H          -0.53843433127231   -2.96874418903150    0.19259226552820
H           0.11003294359278   -1.64080405816994   -0.28335003649191
O           0.61891339009651    1.40395911125685    1.47404683174882
H           1.39173545134092    0.75347921991523    1.28474496021469
H           0.38439972190129    1.77884505674246    0.52628117392371
H          -0.22766309911293    0.78636496800223    1.68646104063214
