    19
        -40.91893412
S           0.41796939746405   -0.74254223109236    1.51101344189418
O           1.11072649087685    0.27575237874117    2.25916661763340
O          -0.97043914761192   -0.44984890601991    1.21376380393865
O           1.14855088961062   -1.12885617011104    0.29419332059545
O           0.40301702271503   -2.04012113654342    2.42481863447295
H           1.22888246266018   -1.97959237239971    2.89506501681890
O           0.78168929324975    1.80602013645514   -1.80350957189592
H           0.46809475171458    2.00809408316675   -0.88080945718176
H           1.72448420604376    1.98255360903677   -1.80897269010763
O          -2.15154684040764   -0.83687267463002   -1.05952363330289
H          -2.58205663951798   -1.69342366278505   -1.03658811354426
H          -1.81751103389288   -0.66778868764098   -0.14081553815369
O           0.01886978049947    2.09237076431523    0.68789437954859
H          -0.87884402889328    1.76972533478114    0.81150635565560
H           0.55044198043336    1.56967586877370    1.32241519609904
O           0.22393196558517   -0.65657204284169   -1.93617085167066
H          -0.78091054275148   -0.73229667895545   -1.74932655038339
H           0.43920904484639    0.35477162681469   -2.00372252771344
H           0.66544094741125   -0.93104923905494   -1.00039783272207
