    19
        -40.92267747
S          -0.15335226713595   -0.28725241475930   -1.01344673740483
O           0.42021367403495   -1.13773578795523    0.05919171965450
O          -1.58859438920846   -0.14851587510250   -0.81616526338293
O           0.53338666171726    0.98285602315669   -1.07615115772946
O           0.10250750728255   -1.04237734560451   -2.34750087580433
H          -0.41979093345093   -1.86783114565261   -2.23731328446030
O           2.29084774020074    1.73695915133035    0.69826957218538
H           3.14877123064717    1.37717864817786    0.46468268994513
H           1.70150759901492    1.57955127333347   -0.08031943144259
O          -1.38566650625019    1.57446525346882    1.14881786747788
H          -1.08931336776984    2.36954325212058    0.69718759620020
H          -1.64033400462266    0.94640447850688    0.43136776845355
O          -1.47922041035481   -2.80923128446784   -1.22578808000135
H          -0.89769199255545   -2.96920357730232   -0.47534744149833
H          -1.95439118651774   -1.98957212214755   -1.01511714715767
O           0.64608990930206    0.32246620324933    2.01959035665667
H          -0.21327006129728    0.86744777836412    1.85528909549479
H           0.57437356251256   -0.42707239682882    1.23610502012438
H           1.40392725444807    0.92191989811231    1.67664772269616
