    19
        -40.91966069
S           0.65581363867232    0.30232155863775   -1.55252613594640
O           0.74547626662543    1.62901062389358   -0.96254010081283
O           1.70770003464634   -0.57677164657399   -1.01895891870855
O          -0.65204866506991   -0.29088697179275   -1.42371956893220
O           0.95969199748229    0.45729704205108   -3.08921838911226
H           1.82156234634556    0.86218503071322   -3.09631749860213
O           0.36051613893762    1.34036440986838    1.55291221504832
H           0.91314308280265    1.95552203773817    2.03869216298504
H           0.49737886221556    1.54498189843625    0.58237458200955
O          -2.21731280024902    0.45970552100081    0.71883159981540
H          -1.87325796621585    0.44666954978344   -0.18941597941892
H          -1.59518235398203    0.99422309794816    1.22555849857137
O          -1.30157120538850   -2.01292208208460    0.58087207100122
H          -1.86505845700674   -1.24688838557009    0.85016167530537
H          -1.18946551688252   -1.86936658959887   -0.37328469504272
O           0.94220487603168   -1.15527281379403    1.25429281158825
H           0.72874135657503   -0.21617115816549    1.56003951553666
H          -0.00403323534914   -1.62388252407630    1.05122551562941
H           1.36570160981379   -1.00011859842004    0.29102063909147
