    19
        -40.91966067
S          -0.54088569219703   -0.50802856306828    1.54311552275292
O           0.54983853426298   -1.44467038591267    1.32117989120653
O          -0.02115249568396    0.82088299755132    1.90082783351819
O          -1.46642780598000   -0.44017667366800    0.43963536645335
O          -1.33737310759813   -1.01458562727527    2.80280149498011
H          -0.66827191185857   -1.04649144555545    3.47961245087342
O           1.89955290158995   -0.54333887740689   -0.66005627556068
H           1.41750069326140   -0.97678775530616    0.10297589159704
H           2.83252217673370   -0.71944325475372   -0.52460696925768
O          -1.30218808703208    1.45075113594457   -1.51094980743916
H          -1.06221912006306    0.65645098445687   -2.04802442894361
H          -1.81703930328981    1.06700910957325   -0.78211032955118
O          -0.52180655021326   -1.00442437840223   -2.08857495475665
H          -0.95184418781771   -1.15076477044292   -1.23001199244952
H           0.42495659233833   -1.07754105882436   -1.92179094142972
O           0.81336324739703    1.75599185782535   -0.22456311383049
H          -0.07578540152398    1.74596523099540   -0.82921321043002
H           0.47128952269116    1.47525069208083    0.74268929637061
H           1.35596996497912    0.95395080219943   -0.51293571410010
